11347535
  -OEChem-08272522023D

 41 43  0     1  0  0  0  0  0999 V2000
    6.1003    0.1403   -0.0451 Cl  0  0  0  0  0  0  0  0  0  0  0  0
    1.7537    1.4133    0.7086 O   0  0  0  0  0  0  0  0  0  0  0  0
   -1.4730   -0.2497   -1.6355 O   0  0  0  0  0  0  0  0  0  0  0  0
    0.0496    1.7964    2.2342 O   0  0  0  0  0  0  0  0  0  0  0  0
    1.4703   -2.9085    0.4735 O   0  0  0  0  0  0  0  0  0  0  0  0
    0.0149   -1.0743    0.4980 N   0  0  0  0  0  0  0  0  0  0  0  0
    0.0435    0.3339    0.1283 C   0  0  1  0  0  0  0  0  0  0  0  0
    1.4172    0.6168   -0.4663 C   0  0  2  0  0  0  0  0  0  0  0  0
    2.0946   -0.7592   -0.5217 C   0  0  2  0  0  0  0  0  0  0  0  0
   -1.2061    0.7283   -0.6401 C   0  0  2  0  0  0  0  0  0  0  0  0
    0.5005    1.2969    1.2285 C   0  0  0  0  0  0  0  0  0  0  0  0
    1.1977   -1.7473    0.2135 C   0  0  0  0  0  0  0  0  0  0  0  0
   -2.4063    0.8270    0.3039 C   0  0  1  0  0  0  0  0  0  0  0  0
    1.5522    1.4426   -1.7197 C   0  0  0  0  0  0  0  0  0  0  0  0
    3.5055   -0.7439    0.0407 C   0  0  0  0  0  0  0  0  0  0  0  0
   -3.6702    1.3047   -0.4354 C   0  0  0  0  0  0  0  0  0  0  0  0
   -2.6188   -0.4931    0.9992 C   0  0  0  0  0  0  0  0  0  0  0  0
   -4.3677    0.1673   -1.1793 C   0  0  0  0  0  0  0  0  0  0  0  0
    4.4567    0.1710   -0.7243 C   0  0  0  0  0  0  0  0  0  0  0  0
   -4.7429   -0.9727   -0.2301 C   0  0  0  0  0  0  0  0  0  0  0  0
   -3.6717   -1.2898    0.7691 C   0  0  0  0  0  0  0  0  0  0  0  0
    2.1198   -1.1149   -1.5611 H   0  0  0  0  0  0  0  0  0  0  0  0
   -1.0761    1.6918   -1.1437 H   0  0  0  0  0  0  0  0  0  0  0  0
   -0.6889   -1.6049    0.9857 H   0  0  0  0  0  0  0  0  0  0  0  0
   -2.2010    1.5815    1.0722 H   0  0  0  0  0  0  0  0  0  0  0  0
    2.5893    1.6362   -1.9979 H   0  0  0  0  0  0  0  0  0  0  0  0
    1.0818    0.9405   -2.5723 H   0  0  0  0  0  0  0  0  0  0  0  0
    1.0718    2.4213   -1.6100 H   0  0  0  0  0  0  0  0  0  0  0  0
    3.4884   -0.4555    1.0998 H   0  0  0  0  0  0  0  0  0  0  0  0
    3.9078   -1.7656    0.0214 H   0  0  0  0  0  0  0  0  0  0  0  0
   -3.4294    2.1165   -1.1318 H   0  0  0  0  0  0  0  0  0  0  0  0
   -4.3733    1.7249    0.2967 H   0  0  0  0  0  0  0  0  0  0  0  0
   -2.0246   -0.7086    1.8831 H   0  0  0  0  0  0  0  0  0  0  0  0
   -1.4301   -1.1312   -1.2286 H   0  0  0  0  0  0  0  0  0  0  0  0
   -3.7604   -0.2115   -2.0054 H   0  0  0  0  0  0  0  0  0  0  0  0
   -5.2832    0.5524   -1.6455 H   0  0  0  0  0  0  0  0  0  0  0  0
    4.1472    1.2142   -0.6554 H   0  0  0  0  0  0  0  0  0  0  0  0
    4.5238   -0.1157   -1.7776 H   0  0  0  0  0  0  0  0  0  0  0  0
   -4.9695   -1.8687   -0.8189 H   0  0  0  0  0  0  0  0  0  0  0  0
   -5.6564   -0.7103    0.3171 H   0  0  0  0  0  0  0  0  0  0  0  0
   -3.8136   -2.1697    1.3901 H   0  0  0  0  0  0  0  0  0  0  0  0
  1 19  1  0  0  0  0
  2  8  1  0  0  0  0
  2 11  1  0  0  0  0
  3 10  1  0  0  0  0
  3 34  1  0  0  0  0
  4 11  2  0  0  0  0
  5 12  2  0  0  0  0
  6  7  1  0  0  0  0
  6 12  1  0  0  0  0
  6 24  1  0  0  0  0
  7  8  1  0  0  0  0
  7 10  1  0  0  0  0
  7 11  1  0  0  0  0
  8  9  1  0  0  0  0
  8 14  1  0  0  0  0
  9 12  1  0  0  0  0
  9 15  1  0  0  0  0
  9 22  1  0  0  0  0
 10 13  1  0  0  0  0
 10 23  1  0  0  0  0
 13 16  1  0  0  0  0
 13 17  1  0  0  0  0
 13 25  1  0  0  0  0
 14 26  1  0  0  0  0
 14 27  1  0  0  0  0
 14 28  1  0  0  0  0
 15 19  1  0  0  0  0
 15 29  1  0  0  0  0
 15 30  1  0  0  0  0
 16 18  1  0  0  0  0
 16 31  1  0  0  0  0
 16 32  1  0  0  0  0
 17 21  2  0  0  0  0
 17 33  1  0  0  0  0
 18 20  1  0  0  0  0
 18 35  1  0  0  0  0
 18 36  1  0  0  0  0
 19 37  1  0  0  0  0
 19 38  1  0  0  0  0
 20 21  1  0  0  0  0
 20 39  1  0  0  0  0
 20 40  1  0  0  0  0
 21 41  1  0  0  0  0
M  END
> <PUBCHEM_COMPOUND_CID>
11347535

> <PUBCHEM_CONFORMER_RMSD>
0.8

> <PUBCHEM_CONFORMER_DIVERSEORDER>
1
2
3

> <PUBCHEM_MMFF94_PARTIAL_CHARGES>
21
1 -0.29
10 0.28
11 0.67
12 0.57
13 0.14
17 -0.29
19 0.29
2 -0.41
20 0.14
21 -0.29
24 0.37
3 -0.68
33 0.15
34 0.4
4 -0.57
41 0.15
5 -0.57
6 -0.65
7 0.28
8 0.26
9 0.06

> <PUBCHEM_EFFECTIVE_ROTOR_COUNT>
5.4

> <PUBCHEM_PHARMACOPHORE_FEATURES>
7
1 3 acceptor
1 3 donor
1 4 acceptor
1 5 acceptor
1 6 donor
6 13 16 17 18 20 21 rings
7 2 6 7 8 9 11 12 rings

> <PUBCHEM_HEAVY_ATOM_COUNT>
21

> <PUBCHEM_ATOM_DEF_STEREO_COUNT>
5

> <PUBCHEM_ATOM_UDEF_STEREO_COUNT>
0

> <PUBCHEM_BOND_DEF_STEREO_COUNT>
0

> <PUBCHEM_BOND_UDEF_STEREO_COUNT>
0

> <PUBCHEM_ISOTOPIC_ATOM_COUNT>
0

> <PUBCHEM_COMPONENT_COUNT>
1

> <PUBCHEM_CACTVS_TAUTO_COUNT>
2

> <PUBCHEM_CONFORMER_ID>
00AD264F00000001

> <PUBCHEM_MMFF94_ENERGY>
47.1021

> <PUBCHEM_FEATURE_SELFOVERLAP>
35.526

> <PUBCHEM_SHAPE_FINGERPRINT>
10366900 7 18410846673215859473
11578080 2 18053917603406796912
11806522 49 18412827979867608438
12236239 1 18272933800030445116
12592029 89 17676488324744620458
12788726 201 17487057748150882193
13083527 12 17679566854102339770
14787075 74 18201158844952785714
15209289 33 18343023323767735026
15238133 3 17915766222677321145
15375462 189 18201431450379223662
16945 1 18261689072848153853
1813 80 16486989396343659080
200 152 18342455937376594247
21521721 280 18340213006554343992
23402539 116 15791451530498838598
23419403 2 17258446152125839600
23559900 14 18261947540186486189
296302 2 17530967955806623983
3286 77 18201440332740668585
34934 24 17987244326214834833
474229 33 18408605877114128990

> <PUBCHEM_SHAPE_MULTIPOLES>
405.58
9.28
1.87
1.37
3.96
0.82
-0.27
0.89
1.73
0.14
-0.25
-0.28
-0.63
0.17

> <PUBCHEM_SHAPE_SELFOVERLAP>
853.501

> <PUBCHEM_SHAPE_VOLUME>
229.9

> <PUBCHEM_COORDINATE_TYPE>
2
5
10

$$$$
