
  Mrv2102 08282503212D          

 15 16  0  0  1  0            999 V2000
    2.1564    2.3977    0.0000 C   0  0  0  0  0  0  0  0  0  0  0  0
    2.2854    1.5829    0.0000 C   0  0  0  0  0  0  0  0  0  0  0  0
    3.0556    1.2872    0.0000 C   0  0  0  0  0  0  0  0  0  0  0  0
    1.6443    1.0637    0.0000 C   0  0  2  0  0  0  0  0  0  0  0  0
    0.8740    1.3593    0.0000 O   0  0  0  0  0  0  0  0  0  0  0  0
    1.7733    0.2488    0.0000 C   0  0  2  0  0  0  0  0  0  0  0  0
    2.5579    0.5037    0.0000 N   0  0  0  0  0  0  0  0  0  0  0  0
    3.0429   -0.1637    0.0000 C   0  0  0  0  0  0  0  0  0  0  0  0
    3.8679   -0.1637    0.0000 O   0  0  0  0  0  0  0  0  0  0  0  0
    2.5579   -0.8311    0.0000 C   0  0  2  0  0  0  0  0  0  0  0  0
    2.8129   -1.6158    0.0000 C   0  0  0  0  0  0  0  0  0  0  0  0
    1.7733   -0.5762    0.0000 C   0  0  2  0  0  0  0  0  0  0  0  0
    0.9483   -0.5762    0.0000 O   0  0  0  0  0  0  0  0  0  0  0  0
    0.9483    0.2488    0.0000 C   0  0  0  0  0  0  0  0  0  0  0  0
    0.3649    0.8322    0.0000 O   0  0  0  0  0  0  0  0  0  0  0  0
  1  2  1  0  0  0  0
  2  3  1  0  0  0  0
  4  2  1  0  0  0  0
  4  5  1  1  0  0  0
  6  4  1  6  0  0  0
  6  7  1  0  0  0  0
  7  8  1  0  0  0  0
  8  9  2  0  0  0  0
 10  8  1  0  0  0  0
 10 11  1  6  0  0  0
 12 10  1  0  0  0  0
  6 12  1  0  0  0  0
 12 13  1  6  0  0  0
 13 14  1  0  0  0  0
  6 14  1  0  0  0  0
 14 15  2  0  0  0  0
M  END
$$$$
