
  Mrv2102 08282504452D          

 24 26  0  0  1  0            999 V2000
    3.0431    0.2561    0.0000 C   0  0  0  0  0  0  0  0  0  0  0  0
    3.7576   -0.1564    0.0000 C   0  0  0  0  0  0  0  0  0  0  0  0
    4.4720    0.2561    0.0000 C   0  0  0  0  0  0  0  0  0  0  0  0
    5.1865   -0.1564    0.0000 C   0  0  0  0  0  0  0  0  0  0  0  0
    5.9010    0.2561    0.0000 C   0  0  0  0  0  0  0  0  0  0  0  0
    6.6154   -0.1564    0.0000 C   0  0  0  0  0  0  0  0  0  0  0  0
    6.6154   -0.9814    0.0000 C   0  0  1  0  0  0  0  0  0  0  0  0
    7.2829   -1.4664    0.0000 C   0  0  0  0  0  0  0  0  0  0  0  0
    8.0675   -1.2114    0.0000 O   0  0  0  0  0  0  0  0  0  0  0  0
    7.0279   -2.2510    0.0000 N   0  0  0  0  0  0  0  0  0  0  0  0
    6.2029   -2.2510    0.0000 C   0  0  1  0  0  0  0  0  0  0  0  0
    6.3320   -3.0658    0.0000 C   0  0  1  0  0  0  0  0  0  0  0  0
    5.6909   -3.5850    0.0000 O   0  0  0  0  0  0  0  0  0  0  0  0
    7.1022   -3.3614    0.0000 C   0  0  1  0  0  0  0  0  0  0  0  0
    7.7434   -2.8423    0.0000 C   0  0  0  0  0  0  0  0  0  0  0  0
    8.5136   -3.1379    0.0000 C   0  0  0  0  0  0  0  0  0  0  0  0
    8.6426   -3.9528    0.0000 C   0  0  0  0  0  0  0  0  0  0  0  0
    8.0015   -4.4720    0.0000 C   0  0  0  0  0  0  0  0  0  0  0  0
    7.2313   -4.1763    0.0000 C   0  0  0  0  0  0  0  0  0  0  0  0
    5.4183   -2.5059    0.0000 C   0  0  0  0  0  0  0  0  0  0  0  0
    5.0438   -3.2410    0.0000 O   0  0  0  0  0  0  0  0  0  0  0  0
    5.1634   -1.7213    0.0000 O   0  0  0  0  0  0  0  0  0  0  0  0
    5.9480   -1.4664    0.0000 C   0  0  1  0  0  0  0  0  0  0  0  0
    5.5735   -0.7313    0.0000 C   0  0  0  0  0  0  0  0  0  0  0  0
  1  2  1  0  0  0  0
  2  3  1  0  0  0  0
  3  4  1  0  0  0  0
  4  5  1  0  0  0  0
  5  6  1  0  0  0  0
  7  6  1  1  0  0  0
  7  8  1  0  0  0  0
  8  9  2  0  0  0  0
  8 10  1  0  0  0  0
 11 10  1  0  0  0  0
 11 12  1  6  0  0  0
 12 13  1  6  0  0  0
 12 14  1  0  0  0  0
 14 15  1  1  0  0  0
 15 16  1  0  0  0  0
 16 17  1  0  0  0  0
 17 18  1  0  0  0  0
 18 19  2  0  0  0  0
 14 19  1  0  0  0  0
 11 20  1  0  0  0  0
 20 21  2  0  0  0  0
 20 22  1  0  0  0  0
 23 22  1  0  0  0  0
 23  7  1  0  0  0  0
 11 23  1  0  0  0  0
 23 24  1  6  0  0  0
M  END
$$$$
