
  Mrv2102 08282504482D          

 19 21  0  0  1  0            999 V2000
    2.8129    2.4408    0.0000 C   0  0  0  0  0  0  0  0  0  0  0  0
    2.5579    1.6561    0.0000 C   0  0  1  0  0  0  0  0  0  0  0  0
    3.0429    0.9887    0.0000 C   0  0  0  0  0  0  0  0  0  0  0  0
    3.8679    0.9887    0.0000 O   0  0  0  0  0  0  0  0  0  0  0  0
    2.5579    0.3213    0.0000 N   0  0  0  0  0  0  0  0  0  0  0  0
    1.7733    0.5762    0.0000 C   0  0  1  0  0  0  0  0  0  0  0  0
    1.6443   -0.2387    0.0000 C   0  0  1  0  0  0  0  0  0  0  0  0
    0.8740   -0.5343    0.0000 O   0  0  0  0  0  0  0  0  0  0  0  0
    2.2854   -0.7579    0.0000 C   0  0  1  0  0  0  0  0  0  0  0  0
    2.1564   -1.5727    0.0000 C   0  0  0  0  0  0  0  0  0  0  0  0
    2.7975   -2.0919    0.0000 C   0  0  0  0  0  0  0  0  0  0  0  0
    3.5677   -1.7963    0.0000 C   0  0  0  0  0  0  0  0  0  0  0  0
    3.6967   -0.9814    0.0000 C   0  0  0  0  0  0  0  0  0  0  0  0
    3.0556   -0.4622    0.0000 C   0  0  0  0  0  0  0  0  0  0  0  0
    0.9483    0.5762    0.0000 C   0  0  0  0  0  0  0  0  0  0  0  0
    0.3649   -0.0072    0.0000 O   0  0  0  0  0  0  0  0  0  0  0  0
    0.9483    1.4012    0.0000 O   0  0  0  0  0  0  0  0  0  0  0  0
    1.7733    1.4012    0.0000 C   0  0  1  0  0  0  0  0  0  0  0  0
    1.6443    2.2160    0.0000 C   0  0  0  0  0  0  0  0  0  0  0  0
  2  1  1  1  0  0  0
  2  3  1  0  0  0  0
  3  4  2  0  0  0  0
  3  5  1  0  0  0  0
  6  5  1  0  0  0  0
  6  7  1  6  0  0  0
  7  8  1  6  0  0  0
  7  9  1  0  0  0  0
  9 10  1  6  0  0  0
 10 11  1  0  0  0  0
 11 12  1  0  0  0  0
 12 13  1  0  0  0  0
 13 14  2  0  0  0  0
  9 14  1  0  0  0  0
  6 15  1  0  0  0  0
 15 16  2  0  0  0  0
 15 17  1  0  0  0  0
 18 17  1  0  0  0  0
 18  2  1  0  0  0  0
  6 18  1  0  0  0  0
 18 19  1  6  0  0  0
M  END
$$$$
