
  Mrv2102 08282503242D          

 26 26  0  0  1  0            999 V2000
   -0.0545   -0.8890    0.0000 C   0  0  0  0  0  0  0  0  0  0  0  0
    0.6112   -1.3762    0.0000 C   0  0  0  0  0  0  0  0  0  0  0  0
    0.5220   -2.1964    0.0000 C   0  0  0  0  0  0  0  0  0  0  0  0
    1.1877   -2.6838    0.0000 C   0  0  2  0  0  0  0  0  0  0  0  0
    0.7003   -3.3494    0.0000 C   0  0  0  0  0  0  0  0  0  0  0  0
    1.6750   -2.0180    0.0000 O   0  0  0  0  0  0  0  0  0  0  0  0
    1.3422   -1.2632    0.0000 C   0  0  0  0  0  0  0  0  0  0  0  0
    1.8534   -3.1711    0.0000 C   0  0  2  0  0  0  0  0  0  0  0  0
    2.6082   -2.8382    0.0000 N   0  0  0  0  0  0  0  0  0  0  0  0
    2.6974   -2.0180    0.0000 C   0  0  0  0  0  0  0  0  0  0  0  0
    2.0318   -1.5308    0.0000 C   0  0  0  0  0  0  0  0  0  0  0  0
    3.4523   -1.6852    0.0000 O   0  0  0  0  0  0  0  0  0  0  0  0
    1.7642   -3.9912    0.0000 C   0  0  2  0  0  0  0  0  0  0  0  0
    2.3753   -4.5455    0.0000 N   0  0  0  0  0  0  0  0  0  0  0  0
    2.0371   -5.2979    0.0000 C   0  0  2  0  0  0  0  0  0  0  0  0
    1.2169   -5.2088    0.0000 C   0  0  0  0  0  0  0  0  0  0  0  0
    1.0482   -4.4012    0.0000 C   0  0  1  0  0  0  0  0  0  0  0  0
    0.2958   -4.0629    0.0000 C   0  0  0  0  0  0  0  0  0  0  0  0
   -0.3734   -4.5454    0.0000 C   0  0  0  0  0  0  0  0  0  0  0  0
   -1.1259   -4.2072    0.0000 C   0  0  0  0  0  0  0  0  0  0  0  0
    2.4470   -6.0139    0.0000 C   0  0  0  0  0  0  0  0  0  0  0  0
    2.0319   -6.7269    0.0000 O   0  0  0  0  0  0  0  0  0  0  0  0
    3.2719   -6.0169    0.0000 O   0  0  0  0  0  0  0  0  0  0  0  0
    3.6819   -6.7328    0.0000 C   0  0  0  0  0  0  0  0  0  0  0  0
    4.5069   -6.7357    0.0000 C   0  0  0  0  0  0  0  0  0  0  0  0
    3.2668   -7.4458    0.0000 C   0  0  0  0  0  0  0  0  0  0  0  0
  1  2  1  0  0  0  0
  2  3  1  0  0  0  0
  4  3  1  6  0  0  0
  4  5  1  1  0  0  0
  4  6  1  0  0  0  0
  6  7  1  0  0  0  0
  8  4  1  0  0  0  0
  8  9  1  6  0  0  0
  9 10  1  0  0  0  0
 10 11  1  0  0  0  0
 10 12  2  0  0  0  0
  8 13  1  0  0  0  0
 13 14  1  6  0  0  0
 15 14  1  0  0  0  0
 15 16  1  0  0  0  0
 17 16  1  0  0  0  0
 13 17  1  0  0  0  0
 17 18  1  1  0  0  0
 18 19  2  0  0  0  0
 19 20  1  0  0  0  0
 15 21  1  1  0  0  0
 21 22  2  0  0  0  0
 21 23  1  0  0  0  0
 23 24  1  0  0  0  0
 24 25  1  0  0  0  0
 24 26  1  0  0  0  0
M  END
$$$$
