
  Mrv2102 08282504452D          

 31 34  0  0  1  0            999 V2000
   -1.3063    5.9478    0.0000 C   0  0  0  0  0  0  0  0  0  0  0  0
   -0.7543    5.3347    0.0000 C   0  0  0  0  0  0  0  0  0  0  0  0
    0.0527    5.5062    0.0000 C   0  0  0  0  0  0  0  0  0  0  0  0
    0.6047    4.8931    0.0000 C   0  0  0  0  0  0  0  0  0  0  0  0
    0.3498    4.1085    0.0000 C   0  0  0  0  0  0  0  0  0  0  0  0
   -0.4572    3.9370    0.0000 C   0  0  0  0  0  0  0  0  0  0  0  0
   -1.0092    4.5501    0.0000 C   0  0  0  0  0  0  0  0  0  0  0  0
    0.9018    3.4954    0.0000 S   0  0  0  0  0  0  0  0  0  0  0  0
    0.2888    2.9434    0.0000 O   0  0  0  0  0  0  0  0  0  0  0  0
    1.5149    4.0474    0.0000 O   0  0  0  0  0  0  0  0  0  0  0  0
    1.4539    2.8823    0.0000 O   0  0  0  0  0  0  0  0  0  0  0  0
    2.2608    3.0538    0.0000 C   0  0  0  0  0  0  0  0  0  0  0  0
    2.8129    2.4408    0.0000 C   0  0  0  0  0  0  0  0  0  0  0  0
    2.5579    1.6561    0.0000 C   0  0  1  0  0  0  0  0  0  0  0  0
    3.0429    0.9887    0.0000 C   0  0  0  0  0  0  0  0  0  0  0  0
    3.8679    0.9887    0.0000 O   0  0  0  0  0  0  0  0  0  0  0  0
    2.5579    0.3213    0.0000 N   0  0  0  0  0  0  0  0  0  0  0  0
    1.7733    0.5762    0.0000 C   0  0  1  0  0  0  0  0  0  0  0  0
    1.6443   -0.2387    0.0000 C   0  0  1  0  0  0  0  0  0  0  0  0
    0.8740   -0.5343    0.0000 O   0  0  0  0  0  0  0  0  0  0  0  0
    2.2854   -0.7579    0.0000 C   0  0  1  0  0  0  0  0  0  0  0  0
    3.0556   -0.4622    0.0000 C   0  0  0  0  0  0  0  0  0  0  0  0
    3.6967   -0.9814    0.0000 C   0  0  0  0  0  0  0  0  0  0  0  0
    3.5677   -1.7963    0.0000 C   0  0  0  0  0  0  0  0  0  0  0  0
    2.7975   -2.0919    0.0000 C   0  0  0  0  0  0  0  0  0  0  0  0
    2.1564   -1.5727    0.0000 C   0  0  0  0  0  0  0  0  0  0  0  0
    0.9483    0.5762    0.0000 C   0  0  0  0  0  0  0  0  0  0  0  0
    0.3649   -0.0072    0.0000 O   0  0  0  0  0  0  0  0  0  0  0  0
    0.9483    1.4012    0.0000 O   0  0  0  0  0  0  0  0  0  0  0  0
    1.7733    1.4012    0.0000 C   0  0  1  0  0  0  0  0  0  0  0  0
    1.6443    2.2160    0.0000 C   0  0  0  0  0  0  0  0  0  0  0  0
  1  2  1  0  0  0  0
  2  3  2  0  0  0  0
  3  4  1  0  0  0  0
  4  5  2  0  0  0  0
  5  6  1  0  0  0  0
  6  7  2  0  0  0  0
  2  7  1  0  0  0  0
  5  8  1  0  0  0  0
  8  9  2  0  0  0  0
  8 10  2  0  0  0  0
  8 11  1  0  0  0  0
 11 12  1  0  0  0  0
 12 13  1  0  0  0  0
 14 13  1  1  0  0  0
 14 15  1  0  0  0  0
 15 16  2  0  0  0  0
 15 17  1  0  0  0  0
 18 17  1  0  0  0  0
 18 19  1  6  0  0  0
 19 20  1  6  0  0  0
 19 21  1  0  0  0  0
 21 22  1  1  0  0  0
 22 23  1  0  0  0  0
 23 24  1  0  0  0  0
 24 25  1  0  0  0  0
 25 26  2  0  0  0  0
 21 26  1  0  0  0  0
 18 27  1  0  0  0  0
 27 28  2  0  0  0  0
 27 29  1  0  0  0  0
 30 29  1  0  0  0  0
 30 14  1  0  0  0  0
 18 30  1  0  0  0  0
 30 31  1  6  0  0  0
M  END
$$$$
