
  Mrv2102 08282504432D          

 23 26  0  0  0  0            999 V2000
   -0.8492   -3.5498    0.0000 C   0  0  0  0  0  0  0  0  0  0  0  0
   -0.8782   -2.7253    0.0000 C   0  0  0  0  0  0  0  0  0  0  0  0
   -1.6067   -2.3382    0.0000 C   0  0  0  0  0  0  0  0  0  0  0  0
   -0.1787   -2.2880    0.0000 C   0  0  0  0  0  0  0  0  0  0  0  0
   -0.2076   -1.4635    0.0000 O   0  0  0  0  0  0  0  0  0  0  0  0
    0.4919   -1.0262    0.0000 C   0  0  0  0  0  0  0  0  0  0  0  0
    1.2204   -1.4133    0.0000 O   0  0  0  0  0  0  0  0  0  0  0  0
    0.4629   -0.2016    0.0000 C   0  0  0  0  0  0  0  0  0  0  0  0
   -0.1725    0.3212    0.0000 C   0  0  0  0  0  0  0  0  0  0  0  0
    0.0841    1.2649    0.0000 O   0  0  0  0  0  0  0  0  0  0  0  0
    0.6349    1.1456    0.0000 C   0  0  0  0  0  0  0  0  0  0  0  0
    1.2636    1.6799    0.0000 C   0  0  0  0  0  0  0  0  0  0  0  0
    1.9973    1.2836    0.0000 N   0  0  0  0  0  0  0  0  0  0  0  0
    2.7337    1.6554    0.0000 C   0  0  0  0  0  0  0  0  0  0  0  0
    2.8659    2.4698    0.0000 C   0  0  0  0  0  0  0  0  0  0  0  0
    3.6812    2.5958    0.0000 C   0  0  0  0  0  0  0  0  0  0  0  0
    4.0529    1.8593    0.0000 C   0  0  0  0  0  0  0  0  0  0  0  0
    3.4674    1.2782    0.0000 C   0  0  0  0  0  0  0  0  0  0  0  0
    1.8811    0.4621    0.0000 C   0  0  0  0  0  0  0  0  0  0  0  0
    2.4594   -0.1263    0.0000 O   0  0  0  0  0  0  0  0  0  0  0  0
    1.0550    0.3597    0.0000 C   0  0  0  0  0  0  0  0  0  0  0  0
   -0.4025    1.4739    0.0000 C   0  0  0  0  0  0  0  0  0  0  0  0
   -0.8583    0.7255    0.0000 C   0  0  0  0  0  0  0  0  0  0  0  0
  1  2  1  0  0  0  0
  2  3  1  0  0  0  0
  2  4  1  0  0  0  0
  4  5  1  0  0  0  0
  5  6  1  0  0  0  0
  6  7  2  0  0  0  0
  6  8  1  0  0  0  0
  8  9  1  0  0  0  0
  9 10  1  0  0  0  0
 10 11  1  0  0  0  0
 11 12  1  0  0  0  0
 12 13  1  0  0  0  0
 13 14  1  0  0  0  0
 14 15  1  0  0  0  0
 15 16  1  0  0  0  0
 16 17  1  0  0  0  0
 17 18  1  0  0  0  0
 14 18  1  0  0  0  0
 13 19  1  0  0  0  0
 19 20  2  0  0  0  0
 19 21  1  0  0  0  0
  8 21  1  0  0  0  0
 11 21  1  0  0  0  0
 11 22  1  0  0  0  0
 22 23  2  0  0  0  0
  9 23  1  0  0  0  0
M  END
$$$$
