
  Mrv2102 08282503092D          

 21 23  0  0  1  0            999 V2000
    0.5483   -1.7471    0.0000 C   0  0  0  0  0  0  0  0  0  0  0  0
    0.6774   -0.9323    0.0000 C   0  0  1  0  0  0  0  0  0  0  0  0
   -0.1476   -0.9323    0.0000 O   0  0  0  0  0  0  0  0  0  0  0  0
   -0.1476   -0.1073    0.0000 C   0  0  0  0  0  0  0  0  0  0  0  0
   -0.7310    0.4761    0.0000 O   0  0  0  0  0  0  0  0  0  0  0  0
    0.6774   -0.1073    0.0000 C   0  0  2  0  0  0  0  0  0  0  0  0
    1.4620    0.1476    0.0000 N   0  0  0  0  0  0  0  0  0  0  0  0
    1.9469   -0.5198    0.0000 C   0  0  0  0  0  0  0  0  0  0  0  0
    2.7719   -0.5198    0.0000 O   0  0  0  0  0  0  0  0  0  0  0  0
    1.4620   -1.1872    0.0000 C   0  0  2  0  0  0  0  0  0  0  0  0
    1.7169   -1.9719    0.0000 C   0  0  0  0  0  0  0  0  0  0  0  0
    2.5239   -2.1434    0.0000 C   0  0  0  0  0  0  0  0  0  0  0  0
    2.7788   -2.9280    0.0000 F   0  0  0  0  0  0  0  0  0  0  0  0
    0.5483    0.7076    0.0000 C   0  0  1  0  0  0  0  0  0  0  0  0
   -0.2219    1.0032    0.0000 O   0  0  0  0  0  0  0  0  0  0  0  0
    1.1894    1.2267    0.0000 C   0  0  1  0  0  0  0  0  0  0  0  0
    1.0604    2.0416    0.0000 C   0  0  0  0  0  0  0  0  0  0  0  0
    1.7015    2.5608    0.0000 C   0  0  0  0  0  0  0  0  0  0  0  0
    2.4717    2.2651    0.0000 C   0  0  0  0  0  0  0  0  0  0  0  0
    2.6008    1.4503    0.0000 C   0  0  0  0  0  0  0  0  0  0  0  0
    1.9596    0.9311    0.0000 C   0  0  0  0  0  0  0  0  0  0  0  0
  2  1  1  1  0  0  0
  2  3  1  0  0  0  0
  3  4  1  0  0  0  0
  4  5  2  0  0  0  0
  6  4  1  0  0  0  0
  2  6  1  0  0  0  0
  6  7  1  0  0  0  0
  7  8  1  0  0  0  0
  8  9  2  0  0  0  0
 10  8  1  0  0  0  0
  2 10  1  0  0  0  0
 10 11  1  6  0  0  0
 11 12  1  0  0  0  0
 12 13  1  0  0  0  0
  6 14  1  1  0  0  0
 14 15  1  1  0  0  0
 14 16  1  0  0  0  0
 16 17  1  1  0  0  0
 17 18  1  0  0  0  0
 18 19  1  0  0  0  0
 19 20  1  0  0  0  0
 20 21  2  0  0  0  0
 16 21  1  0  0  0  0
M  END
$$$$
