
  Mrv2102 08282504522D          

 20 22  0  0  0  0            999 V2000
    2.2799   -1.8764    0.0000 C   0  0  0  0  0  0  0  0  0  0  0  0
    2.9944   -1.4639    0.0000 O   0  0  0  0  0  0  0  0  0  0  0  0
    3.7089   -1.8764    0.0000 C   0  0  0  0  0  0  0  0  0  0  0  0
    4.4234   -1.4639    0.0000 C   0  0  0  0  0  0  0  0  0  0  0  0
    5.1379   -1.8764    0.0000 C   0  0  0  0  0  0  0  0  0  0  0  0
    5.8523   -1.4639    0.0000 N   0  0  0  0  0  0  0  0  0  0  0  0
    5.9816   -0.6497    0.0000 C   0  0  0  0  0  0  0  0  0  0  0  0
    6.8532   -0.4398    0.0000 C   0  0  0  0  0  0  0  0  0  0  0  0
    7.7988   -0.1809    0.0000 O   0  0  0  0  0  0  0  0  0  0  0  0
    7.7764    0.3693    0.0000 C   0  0  0  0  0  0  0  0  0  0  0  0
    7.0155    0.8285    0.0000 C   0  0  0  0  0  0  0  0  0  0  0  0
    6.4159    0.2644    0.0000 C   0  0  0  0  0  0  0  0  0  0  0  0
    8.0543   -0.6557    0.0000 C   0  0  0  0  0  0  0  0  0  0  0  0
    7.2630   -1.1345    0.0000 C   0  0  0  0  0  0  0  0  0  0  0  0
    6.6335   -1.7635    0.0000 C   0  0  0  0  0  0  0  0  0  0  0  0
    6.8050   -2.5705    0.0000 O   0  0  0  0  0  0  0  0  0  0  0  0
    8.8202   -0.9624    0.0000 C   0  0  0  0  0  0  0  0  0  0  0  0
    9.4687   -0.4525    0.0000 O   0  0  0  0  0  0  0  0  0  0  0  0
    8.9375   -1.7790    0.0000 O   0  0  0  0  0  0  0  0  0  0  0  0
    9.7033   -2.0857    0.0000 C   0  0  0  0  0  0  0  0  0  0  0  0
  1  2  1  0  0  0  0
  2  3  1  0  0  0  0
  3  4  1  0  0  0  0
  4  5  1  0  0  0  0
  5  6  1  0  0  0  0
  6  7  1  0  0  0  0
  7  8  1  0  0  0  0
  8  9  1  0  0  0  0
  9 10  1  0  0  0  0
 10 11  1  0  0  0  0
 11 12  2  0  0  0  0
  8 12  1  0  0  0  0
 10 13  1  0  0  0  0
 13 14  1  0  0  0  0
  8 14  1  0  0  0  0
 14 15  1  0  0  0  0
  6 15  1  0  0  0  0
 15 16  2  0  0  0  0
 13 17  1  0  0  0  0
 17 18  2  0  0  0  0
 17 19  1  0  0  0  0
 19 20  1  0  0  0  0
M  END
$$$$
