
  Mrv2102 08282504482D          

 21 23  0  0  1  0            999 V2000
    1.4539    2.8823    0.0000 C   0  0  0  0  0  0  0  0  0  0  0  0
    2.2608    3.0538    0.0000 C   0  0  0  0  0  0  0  0  0  0  0  0
    2.8129    2.4408    0.0000 C   0  0  0  0  0  0  0  0  0  0  0  0
    2.5579    1.6561    0.0000 C   0  0  1  0  0  0  0  0  0  0  0  0
    3.0429    0.9887    0.0000 C   0  0  0  0  0  0  0  0  0  0  0  0
    3.8679    0.9887    0.0000 O   0  0  0  0  0  0  0  0  0  0  0  0
    2.5579    0.3213    0.0000 N   0  0  0  0  0  0  0  0  0  0  0  0
    1.7733    0.5762    0.0000 C   0  0  1  0  0  0  0  0  0  0  0  0
    1.6443   -0.2387    0.0000 C   0  0  1  0  0  0  0  0  0  0  0  0
    0.8740   -0.5343    0.0000 O   0  0  0  0  0  0  0  0  0  0  0  0
    2.2854   -0.7579    0.0000 C   0  0  1  0  0  0  0  0  0  0  0  0
    3.0556   -0.4622    0.0000 C   0  0  0  0  0  0  0  0  0  0  0  0
    3.6967   -0.9814    0.0000 C   0  0  0  0  0  0  0  0  0  0  0  0
    3.5677   -1.7963    0.0000 C   0  0  0  0  0  0  0  0  0  0  0  0
    2.7975   -2.0919    0.0000 C   0  0  0  0  0  0  0  0  0  0  0  0
    2.1564   -1.5727    0.0000 C   0  0  0  0  0  0  0  0  0  0  0  0
    0.9483    0.5762    0.0000 C   0  0  0  0  0  0  0  0  0  0  0  0
    0.3649   -0.0072    0.0000 O   0  0  0  0  0  0  0  0  0  0  0  0
    0.9483    1.4012    0.0000 O   0  0  0  0  0  0  0  0  0  0  0  0
    1.7733    1.4012    0.0000 C   0  0  1  0  0  0  0  0  0  0  0  0
    1.6443    2.2160    0.0000 C   0  0  0  0  0  0  0  0  0  0  0  0
  1  2  1  0  0  0  0
  2  3  1  0  0  0  0
  4  3  1  1  0  0  0
  4  5  1  0  0  0  0
  5  6  2  0  0  0  0
  5  7  1  0  0  0  0
  8  7  1  0  0  0  0
  8  9  1  6  0  0  0
  9 10  1  6  0  0  0
  9 11  1  0  0  0  0
 11 12  1  1  0  0  0
 12 13  1  0  0  0  0
 13 14  1  0  0  0  0
 14 15  1  0  0  0  0
 15 16  2  0  0  0  0
 11 16  1  0  0  0  0
  8 17  1  0  0  0  0
 17 18  2  0  0  0  0
 17 19  1  0  0  0  0
 20 19  1  0  0  0  0
 20  4  1  0  0  0  0
  8 20  1  0  0  0  0
 20 21  1  6  0  0  0
M  END
$$$$
