
  Mrv2102 08282504522D          

 27 29  0  0  1  0            999 V2000
    3.7578   -1.6085    0.0000 C   0  0  0  0  0  0  0  0  0  0  0  0
    4.4722   -1.1960    0.0000 O   0  0  0  0  0  0  0  0  0  0  0  0
    5.1867   -1.6085    0.0000 C   0  0  0  0  0  0  0  0  0  0  0  0
    5.1867   -2.4335    0.0000 O   0  0  0  0  0  0  0  0  0  0  0  0
    5.9012   -1.1960    0.0000 C   0  0  0  0  0  0  0  0  0  0  0  0
    6.6156   -1.6085    0.0000 C   0  0  0  0  0  0  0  0  0  0  0  0
    7.3301   -1.1960    0.0000 S   0  0  0  0  0  0  0  0  0  0  0  0
    8.0446   -1.6085    0.0000 C   0  0  0  0  0  0  0  0  0  0  0  0
    7.5597   -2.2759    0.0000 O   0  0  0  0  0  0  0  0  0  0  0  0
    8.7591   -1.1960    0.0000 C   0  0  2  0  0  0  0  0  0  0  0  0
    8.2742   -0.5285    0.0000 N   0  0  0  0  0  0  0  0  0  0  0  0
    8.7591    0.1389    0.0000 C   0  0  0  0  0  0  0  0  0  0  0  0
    8.5041    0.9235    0.0000 O   0  0  0  0  0  0  0  0  0  0  0  0
    9.5437   -0.1160    0.0000 C   0  0  2  0  0  0  0  0  0  0  0  0
   10.3283    0.1389    0.0000 C   0  0  0  0  0  0  0  0  0  0  0  0
   10.8132   -0.5285    0.0000 C   0  0  0  0  0  0  0  0  0  0  0  0
   10.3283   -1.1960    0.0000 O   0  0  0  0  0  0  0  0  0  0  0  0
    9.5437   -0.9410    0.0000 C   0  0  2  0  0  0  0  0  0  0  0  0
    9.5437   -1.7660    0.0000 C   0  0  0  0  0  0  0  0  0  0  0  0
    9.0947   -1.9497    0.0000 C   0  0  1  0  0  0  0  0  0  0  0  0
    9.9151   -2.0359    0.0000 O   0  0  0  0  0  0  0  0  0  0  0  0
    8.6097   -2.6171    0.0000 C   0  0  1  0  0  0  0  0  0  0  0  0
    8.9452   -3.3708    0.0000 C   0  0  0  0  0  0  0  0  0  0  0  0
    8.4603   -4.0382    0.0000 C   0  0  0  0  0  0  0  0  0  0  0  0
    7.6399   -3.9520    0.0000 C   0  0  0  0  0  0  0  0  0  0  0  0
    7.3043   -3.1983    0.0000 C   0  0  0  0  0  0  0  0  0  0  0  0
    7.7892   -2.5309    0.0000 C   0  0  0  0  0  0  0  0  0  0  0  0
  1  2  1  0  0  0  0
  2  3  1  0  0  0  0
  3  4  2  0  0  0  0
  3  5  1  0  0  0  0
  5  6  1  0  0  0  0
  6  7  1  0  0  0  0
  7  8  1  0  0  0  0
  8  9  2  0  0  0  0
 10  8  1  6  0  0  0
 10 11  1  0  0  0  0
 11 12  1  0  0  0  0
 12 13  2  0  0  0  0
 14 12  1  6  0  0  0
 14 15  1  0  0  0  0
 15 16  1  0  0  0  0
 16 17  1  0  0  0  0
 18 17  1  0  0  0  0
 10 18  1  0  0  0  0
 18 14  1  0  0  0  0
 18 19  1  1  0  0  0
 10 20  1  1  0  0  0
 20 21  1  1  0  0  0
 20 22  1  0  0  0  0
 22 23  1  1  0  0  0
 23 24  1  0  0  0  0
 24 25  1  0  0  0  0
 25 26  1  0  0  0  0
 26 27  2  0  0  0  0
 22 27  1  0  0  0  0
M  END
$$$$
