
  Mrv2102 08282504482D          

 19 20  0  0  1  0            999 V2000
   -2.2173   -1.7683    0.0000 C   0  0  0  0  0  0  0  0  0  0  0  0
   -1.5028   -1.3558    0.0000 C   0  0  0  0  0  0  0  0  0  0  0  0
   -0.7884   -1.7683    0.0000 C   0  0  0  0  0  0  0  0  0  0  0  0
   -0.0739   -1.3558    0.0000 C   0  0  0  0  0  0  0  0  0  0  0  0
    0.6406   -1.7683    0.0000 C   0  0  2  0  0  0  0  0  0  0  0  0
    0.6406   -2.5933    0.0000 O   0  0  0  0  0  0  0  0  0  0  0  0
    1.3551   -1.3558    0.0000 C   0  0  1  0  0  0  0  0  0  0  0  0
    0.8359   -0.7146    0.0000 N   0  0  0  0  0  0  0  0  0  0  0  0
    1.2852   -0.0227    0.0000 C   0  0  0  0  0  0  0  0  0  0  0  0
    0.9896    0.7475    0.0000 O   0  0  0  0  0  0  0  0  0  0  0  0
    2.0821   -0.2363    0.0000 C   0  0  2  0  0  0  0  0  0  0  0  0
    2.7233    0.2829    0.0000 C   0  0  0  0  0  0  0  0  0  0  0  0
    3.4934   -0.0127    0.0000 C   0  0  0  0  0  0  0  0  0  0  0  0
    4.1346    0.5065    0.0000 Cl  0  0  0  0  0  0  0  0  0  0  0  0
    2.1253   -1.0601    0.0000 C   0  0  1  0  0  0  0  0  0  0  0  0
    2.9322   -0.8886    0.0000 C   0  0  0  0  0  0  0  0  0  0  0  0
    2.4209   -1.8303    0.0000 O   0  0  0  0  0  0  0  0  0  0  0  0
    1.6507   -2.1260    0.0000 C   0  0  0  0  0  0  0  0  0  0  0  0
    1.3152   -2.8797    0.0000 O   0  0  0  0  0  0  0  0  0  0  0  0
  1  2  1  0  0  0  0
  2  3  1  0  0  0  0
  3  4  1  0  0  0  0
  5  4  1  0  0  0  0
  5  6  1  1  0  0  0
  7  5  1  1  0  0  0
  7  8  1  0  0  0  0
  8  9  1  0  0  0  0
  9 10  2  0  0  0  0
 11  9  1  0  0  0  0
 11 12  1  6  0  0  0
 12 13  1  0  0  0  0
 13 14  1  0  0  0  0
 15 11  1  0  0  0  0
  7 15  1  0  0  0  0
 15 16  1  1  0  0  0
 15 17  1  0  0  0  0
 17 18  1  0  0  0  0
  7 18  1  0  0  0  0
 18 19  2  0  0  0  0
M  END
$$$$
