
  Mrv2102 08282504512D          

 22 25  0  0  1  0            999 V2000
    0.7121    3.6073    0.0000 C   0  0  0  0  0  0  0  0  0  0  0  0
    1.2641    2.9942    0.0000 C   0  0  1  0  0  0  0  0  0  0  0  0
    1.7833    3.6354    0.0000 O   0  0  0  0  0  0  0  0  0  0  0  0
    2.4244    3.1161    0.0000 C   0  0  0  0  0  0  0  0  0  0  0  0
    3.2449    3.2024    0.0000 O   0  0  0  0  0  0  0  0  0  0  0  0
    1.9053    2.4750    0.0000 C   0  0  2  0  0  0  0  0  0  0  0  0
    1.6096    1.7048    0.0000 N   0  0  0  0  0  0  0  0  0  0  0  0
    0.7857    1.7480    0.0000 C   0  0  0  0  0  0  0  0  0  0  0  0
    0.2665    1.1068    0.0000 O   0  0  0  0  0  0  0  0  0  0  0  0
    0.5722    2.5449    0.0000 C   0  0  2  0  0  0  0  0  0  0  0  0
   -0.1980    2.8405    0.0000 C   0  0  0  0  0  0  0  0  0  0  0  0
   -0.8391    2.3213    0.0000 C   0  0  0  0  0  0  0  0  0  0  0  0
   -1.6093    2.6170    0.0000 Cl  0  0  0  0  0  0  0  0  0  0  0  0
    2.6197    2.0625    0.0000 C   0  0  1  0  0  0  0  0  0  0  0  0
    3.3342    2.4750    0.0000 O   0  0  0  0  0  0  0  0  0  0  0  0
    2.6197    1.2375    0.0000 C   0  0  1  0  0  0  0  0  0  0  0  0
    3.3342    0.8250    0.0000 C   0  0  0  0  0  0  0  0  0  0  0  0
    3.3342    0.0000    0.0000 C   0  0  0  0  0  0  0  0  0  0  0  0
    2.6197   -0.4125    0.0000 C   0  0  0  0  0  0  0  0  0  0  0  0
    1.9053    0.0000    0.0000 C   0  0  1  0  0  0  0  0  0  0  0  0
    1.1908    0.4125    0.0000 O   0  0  0  0  0  0  0  0  0  0  0  0
    1.9053    0.8250    0.0000 C   0  0  1  0  0  0  0  0  0  0  0  0
  2  1  1  1  0  0  0
  2  3  1  0  0  0  0
  3  4  1  0  0  0  0
  4  5  2  0  0  0  0
  6  4  1  0  0  0  0
  2  6  1  0  0  0  0
  6  7  1  0  0  0  0
  7  8  1  0  0  0  0
  8  9  2  0  0  0  0
 10  8  1  0  0  0  0
  2 10  1  0  0  0  0
 10 11  1  6  0  0  0
 11 12  1  0  0  0  0
 12 13  1  0  0  0  0
  6 14  1  1  0  0  0
 14 15  1  1  0  0  0
 14 16  1  0  0  0  0
 16 17  1  1  0  0  0
 17 18  1  0  0  0  0
 18 19  1  0  0  0  0
 20 19  1  0  0  0  0
 20 21  1  1  0  0  0
 22 21  1  1  0  0  0
 16 22  1  0  0  0  0
 22 20  1  0  0  0  0
M  END
$$$$
