
  Mrv2102 08282505482D          

 30 31  0  0  1  0            999 V2000
   10.4071    0.0980    0.0000 C   0  0  0  0  0  0  0  0  0  0  0  0
    9.5859    0.0194    0.0000 O   0  0  0  0  0  0  0  0  0  0  0  0
    9.2433   -0.7311    0.0000 C   0  0  1  0  0  0  0  0  0  0  0  0
   10.0645   -0.6525    0.0000 C   0  0  0  0  0  0  0  0  0  0  0  0
   10.5432   -1.3244    0.0000 O   0  0  0  0  0  0  0  0  0  0  0  0
   10.2006   -2.0749    0.0000 C   0  0  0  0  0  0  0  0  0  0  0  0
   10.6793   -2.7469    0.0000 O   0  0  0  0  0  0  0  0  0  0  0  0
    9.3794   -2.1535    0.0000 C   0  0  2  0  0  0  0  0  0  0  0  0
    8.9007   -1.4816    0.0000 C   0  0  0  0  0  0  0  0  0  0  0  0
    9.0368   -2.9041    0.0000 N   0  0  0  0  0  0  0  0  0  0  0  0
    8.2156   -2.9826    0.0000 C   0  0  0  0  0  0  0  0  0  0  0  0
    7.7369   -2.3107    0.0000 O   0  0  0  0  0  0  0  0  0  0  0  0
    7.8730   -3.7331    0.0000 C   0  0  1  0  0  0  0  0  0  0  0  0
    8.3517   -4.4051    0.0000 C   0  0  0  0  0  0  0  0  0  0  0  0
    7.0518   -3.8117    0.0000 C   0  0  0  0  0  0  0  0  0  0  0  0
    6.5731   -3.1398    0.0000 O   0  0  0  0  0  0  0  0  0  0  0  0
    5.7519   -3.2184    0.0000 C   0  0  0  0  0  0  0  0  0  0  0  0
    5.4093   -3.9689    0.0000 O   0  0  0  0  0  0  0  0  0  0  0  0
    5.2731   -2.5465    0.0000 C   0  0  1  0  0  0  0  0  0  0  0  0
    4.4535   -2.4526    0.0000 C   0  0  0  0  0  0  0  0  0  0  0  0
    4.2895   -1.6441    0.0000 C   0  0  0  0  0  0  0  0  0  0  0  0
    5.0078   -1.2382    0.0000 C   0  0  0  0  0  0  0  0  0  0  0  0
    5.6157   -1.7959    0.0000 N   0  0  0  0  0  0  0  0  0  0  0  0
    6.4370   -1.7173    0.0000 C   0  0  0  0  0  0  0  0  0  0  0  0
    6.9156   -2.3893    0.0000 O   0  0  0  0  0  0  0  0  0  0  0  0
    6.7795   -0.9669    0.0000 C   0  0  0  0  0  0  0  0  0  0  0  0
    7.6008   -0.8883    0.0000 C   0  0  0  0  0  0  0  0  0  0  0  0
    7.9434   -0.1377    0.0000 C   0  0  0  0  0  0  0  0  0  0  0  0
    8.7646   -0.0591    0.0000 C   0  0  1  0  0  0  0  0  0  0  0  0
    9.1072    0.6913    0.0000 C   0  0  0  0  0  0  0  0  0  0  0  0
  1  2  1  0  0  0  0
  3  2  1  6  0  0  0
  3  4  1  1  0  0  0
  4  5  1  0  0  0  0
  5  6  1  0  0  0  0
  6  7  2  0  0  0  0
  8  6  1  0  0  0  0
  8  9  1  1  0  0  0
  8 10  1  0  0  0  0
 10 11  1  0  0  0  0
 11 12  2  0  0  0  0
 13 11  1  0  0  0  0
 13 14  1  1  0  0  0
 13 15  1  0  0  0  0
 15 16  1  0  0  0  0
 16 17  1  0  0  0  0
 17 18  2  0  0  0  0
 19 17  1  0  0  0  0
 19 20  1  0  0  0  0
 20 21  1  0  0  0  0
 21 22  1  0  0  0  0
 22 23  1  0  0  0  0
 19 23  1  1  0  0  0
 23 24  1  0  0  0  0
 24 25  2  0  0  0  0
 24 26  1  0  0  0  0
 26 27  1  0  0  0  0
 27 28  2  0  0  0  0
 29 28  1  0  0  0  0
  3 29  1  0  0  0  0
 29 30  1  1  0  0  0
M  END
$$$$
