
  Mrv2102 08282505522D          

 26 26  0  0  1  0            999 V2000
   -2.1915   -0.3691    0.0000 C   0  0  0  0  0  0  0  0  0  0  0  0
   -1.3813   -0.5250    0.0000 C   0  0  0  0  0  0  0  0  0  0  0  0
   -0.8413    0.0987    0.0000 C   0  0  0  0  0  0  0  0  0  0  0  0
   -0.0311   -0.0573    0.0000 C   0  0  0  0  0  0  0  0  0  0  0  0
    0.5090    0.5664    0.0000 C   0  0  2  0  0  0  0  0  0  0  0  0
    1.3191    0.4105    0.0000 C   0  0  1  0  0  0  0  0  0  0  0  0
    1.8592    1.0341    0.0000 O   0  0  0  0  0  0  0  0  0  0  0  0
    2.6693    0.8782    0.0000 C   0  0  0  0  0  0  0  0  0  0  0  0
    1.5891   -0.3691    0.0000 C   0  0  0  0  0  0  0  0  0  0  0  0
    1.0490   -0.9927    0.0000 O   0  0  0  0  0  0  0  0  0  0  0  0
    2.3992   -0.5250    0.0000 N   0  0  0  0  0  0  0  0  0  0  0  0
    2.9394    0.0987    0.0000 O   0  0  0  0  0  0  0  0  0  0  0  0
    0.2389    1.3459    0.0000 C   0  0  0  0  0  0  0  0  0  0  0  0
    0.7790    1.9696    0.0000 O   0  0  0  0  0  0  0  0  0  0  0  0
   -0.5712    1.5019    0.0000 N   0  0  0  0  0  0  0  0  0  0  0  0
   -1.1735    0.9381    0.0000 C   0  0  0  0  0  0  0  0  0  0  0  0
   -1.8958    1.3367    0.0000 C   0  0  0  0  0  0  0  0  0  0  0  0
   -1.7399    2.1468    0.0000 C   0  0  0  0  0  0  0  0  0  0  0  0
   -0.9213    2.2489    0.0000 C   0  0  1  0  0  0  0  0  0  0  0  0
   -0.5226    2.9712    0.0000 C   0  0  0  0  0  0  0  0  0  0  0  0
    0.3022    2.9871    0.0000 O   0  0  0  0  0  0  0  0  0  0  0  0
   -0.9489    3.6776    0.0000 O   0  0  0  0  0  0  0  0  0  0  0  0
   -1.7737    3.6617    0.0000 C   0  0  0  0  0  0  0  0  0  0  0  0
   -2.5985    3.6457    0.0000 C   0  0  0  0  0  0  0  0  0  0  0  0
   -1.7897    4.4865    0.0000 C   0  0  0  0  0  0  0  0  0  0  0  0
   -1.7578    2.8368    0.0000 C   0  0  0  0  0  0  0  0  0  0  0  0
  1  2  1  0  0  0  0
  2  3  1  0  0  0  0
  3  4  1  0  0  0  0
  5  4  1  1  0  0  0
  5  6  1  0  0  0  0
  6  7  1  1  0  0  0
  7  8  1  0  0  0  0
  6  9  1  0  0  0  0
  9 10  2  0  0  0  0
  9 11  1  0  0  0  0
 11 12  1  0  0  0  0
  5 13  1  0  0  0  0
 13 14  2  0  0  0  0
 13 15  1  0  0  0  0
 15 16  1  0  0  0  0
 16 17  1  0  0  0  0
 17 18  1  0  0  0  0
 19 18  1  0  0  0  0
 19 15  1  0  0  0  0
 19 20  1  1  0  0  0
 20 21  2  0  0  0  0
 20 22  1  0  0  0  0
 22 23  1  0  0  0  0
 23 24  1  0  0  0  0
 23 25  1  0  0  0  0
 23 26  1  0  0  0  0
M  END
$$$$
