
  Mrv2102 08282505512D          

 30 31  0  0  1  0            999 V2000
    4.3183   -0.8681    0.0000 C   0  0  0  0  0  0  0  0  0  0  0  0
    3.4971   -0.9467    0.0000 O   0  0  0  0  0  0  0  0  0  0  0  0
    3.0184   -0.2748    0.0000 C   0  0  2  0  0  0  0  0  0  0  0  0
    2.1972   -0.3534    0.0000 C   0  0  0  0  0  0  0  0  0  0  0  0
    1.7185    0.3186    0.0000 O   0  0  0  0  0  0  0  0  0  0  0  0
    0.8973    0.2400    0.0000 C   0  0  0  0  0  0  0  0  0  0  0  0
    0.5547   -0.5105    0.0000 O   0  0  0  0  0  0  0  0  0  0  0  0
    0.4186    0.9119    0.0000 C   0  0  1  0  0  0  0  0  0  0  0  0
   -0.4011    1.0058    0.0000 C   0  0  0  0  0  0  0  0  0  0  0  0
   -0.5651    1.8144    0.0000 C   0  0  0  0  0  0  0  0  0  0  0  0
    0.1532    2.2202    0.0000 C   0  0  0  0  0  0  0  0  0  0  0  0
    0.7611    1.6624    0.0000 N   0  0  0  0  0  0  0  0  0  0  0  0
    1.5824    1.7410    0.0000 C   0  0  0  0  0  0  0  0  0  0  0  0
    2.0611    1.0691    0.0000 O   0  0  0  0  0  0  0  0  0  0  0  0
    1.9250    2.4916    0.0000 C   0  0  0  0  0  0  0  0  0  0  0  0
    2.7462    2.5701    0.0000 C   0  0  0  0  0  0  0  0  0  0  0  0
    3.0888    3.3206    0.0000 C   0  0  2  0  0  0  0  0  0  0  0  0
    2.6101    3.9926    0.0000 C   0  0  0  0  0  0  0  0  0  0  0  0
    3.9100    3.3992    0.0000 C   0  0  2  0  0  0  0  0  0  0  0  0
    4.3887    2.7273    0.0000 C   0  0  0  0  0  0  0  0  0  0  0  0
    5.2099    2.8059    0.0000 O   0  0  0  0  0  0  0  0  0  0  0  0
    5.6886    2.1340    0.0000 C   0  0  0  0  0  0  0  0  0  0  0  0
    6.5099    2.2126    0.0000 O   0  0  0  0  0  0  0  0  0  0  0  0
    5.3461    1.3834    0.0000 C   0  0  0  0  0  0  0  0  0  0  0  0
    4.5248    1.3048    0.0000 C   0  0  0  0  0  0  0  0  0  0  0  0
    4.1823    0.5544    0.0000 C   0  0  0  0  0  0  0  0  0  0  0  0
    3.3610    0.4758    0.0000 C   0  0  1  0  0  0  0  0  0  0  0  0
    2.8823    1.1477    0.0000 C   0  0  0  0  0  0  0  0  0  0  0  0
    4.2526    4.1498    0.0000 O   0  0  0  0  0  0  0  0  0  0  0  0
    5.0739    4.2283    0.0000 C   0  0  0  0  0  0  0  0  0  0  0  0
  1  2  1  0  0  0  0
  3  2  1  6  0  0  0
  3  4  1  0  0  0  0
  4  5  1  0  0  0  0
  5  6  1  0  0  0  0
  6  7  2  0  0  0  0
  8  6  1  0  0  0  0
  8  9  1  0  0  0  0
  9 10  1  0  0  0  0
 10 11  1  0  0  0  0
 11 12  1  0  0  0  0
  8 12  1  1  0  0  0
 12 13  1  0  0  0  0
 13 14  2  0  0  0  0
 13 15  1  0  0  0  0
 15 16  2  0  0  0  0
 17 16  1  0  0  0  0
 17 18  1  6  0  0  0
 17 19  1  0  0  0  0
 19 20  1  0  0  0  0
 20 21  1  0  0  0  0
 21 22  1  0  0  0  0
 22 23  2  0  0  0  0
 22 24  1  0  0  0  0
 24 25  1  0  0  0  0
 25 26  1  0  0  0  0
 27 26  1  0  0  0  0
  3 27  1  0  0  0  0
 27 28  1  6  0  0  0
 19 29  1  1  0  0  0
 29 30  1  0  0  0  0
M  END
$$$$
