
  Mrv2102 08282503122D          

 28 29  0  0  1  0            999 V2000
   -0.6453   -5.1597    0.0000 C   0  0  0  0  0  0  0  0  0  0  0  0
    0.0692   -4.7472    0.0000 O   0  0  0  0  0  0  0  0  0  0  0  0
    0.7836   -5.1597    0.0000 C   0  0  0  0  0  0  0  0  0  0  0  0
    0.7836   -5.9847    0.0000 O   0  0  0  0  0  0  0  0  0  0  0  0
    1.4981   -4.7472    0.0000 C   0  0  0  0  0  0  0  0  0  0  0  0
    2.2126   -5.1597    0.0000 C   0  0  0  0  0  0  0  0  0  0  0  0
    2.9271   -4.7472    0.0000 S   0  0  0  0  0  0  0  0  0  0  0  0
    3.6415   -5.1597    0.0000 C   0  0  0  0  0  0  0  0  0  0  0  0
    3.6415   -5.9847    0.0000 O   0  0  0  0  0  0  0  0  0  0  0  0
    4.3560   -4.7472    0.0000 C   0  0  2  0  0  0  0  0  0  0  0  0
    5.1406   -4.4922    0.0000 N   0  0  0  0  0  0  0  0  0  0  0  0
    5.1406   -3.6672    0.0000 C   0  0  0  0  0  0  0  0  0  0  0  0
    5.8081   -3.1823    0.0000 O   0  0  0  0  0  0  0  0  0  0  0  0
    4.3560   -3.4123    0.0000 C   0  0  2  0  0  0  0  0  0  0  0  0
    4.1011   -2.6277    0.0000 C   0  0  0  0  0  0  0  0  0  0  0  0
    3.2941   -2.4561    0.0000 C   0  0  0  0  0  0  0  0  0  0  0  0
    2.7421   -3.0692    0.0000 Cl  0  0  0  0  0  0  0  0  0  0  0  0
    3.8711   -4.0797    0.0000 C   0  0  1  0  0  0  0  0  0  0  0  0
    3.1524   -4.4847    0.0000 C   0  0  0  0  0  0  0  0  0  0  0  0
    3.1524   -3.6747    0.0000 O   0  0  0  0  0  0  0  0  0  0  0  0
    4.6916   -5.5008    0.0000 C   0  0  1  0  0  0  0  0  0  0  0  0
    4.2066   -6.1683    0.0000 O   0  0  0  0  0  0  0  0  0  0  0  0
    5.5121   -5.5871    0.0000 C   0  0  1  0  0  0  0  0  0  0  0  0
    5.9969   -4.9196    0.0000 C   0  0  0  0  0  0  0  0  0  0  0  0
    6.8174   -5.0059    0.0000 C   0  0  0  0  0  0  0  0  0  0  0  0
    7.1530   -5.7596    0.0000 C   0  0  0  0  0  0  0  0  0  0  0  0
    6.6681   -6.4270    0.0000 C   0  0  0  0  0  0  0  0  0  0  0  0
    5.8476   -6.3408    0.0000 C   0  0  0  0  0  0  0  0  0  0  0  0
  1  2  1  0  0  0  0
  2  3  1  0  0  0  0
  3  4  2  0  0  0  0
  3  5  1  0  0  0  0
  5  6  1  0  0  0  0
  6  7  1  0  0  0  0
  7  8  1  0  0  0  0
  8  9  2  0  0  0  0
 10  8  1  1  0  0  0
 10 11  1  0  0  0  0
 11 12  1  0  0  0  0
 12 13  2  0  0  0  0
 14 12  1  0  0  0  0
 14 15  1  1  0  0  0
 15 16  1  0  0  0  0
 16 17  1  0  0  0  0
 18 14  1  0  0  0  0
 10 18  1  0  0  0  0
 18 19  1  6  0  0  0
 18 20  1  1  0  0  0
 10 21  1  6  0  0  0
 21 22  1  6  0  0  0
 21 23  1  0  0  0  0
 23 24  1  1  0  0  0
 24 25  1  0  0  0  0
 25 26  1  0  0  0  0
 26 27  1  0  0  0  0
 27 28  2  0  0  0  0
 23 28  1  0  0  0  0
M  END
$$$$
