
  Mrv2102 08282505592D          

 22 23  0  0  1  0            999 V2000
    0.8879    1.0919    0.0000 C   0  0  0  0  0  0  0  0  0  0  0  0
    0.1735    0.6794    0.0000 C   0  0  0  0  0  0  0  0  0  0  0  0
    0.1735   -0.1456    0.0000 O   0  0  0  0  0  0  0  0  0  0  0  0
   -0.5410   -0.5581    0.0000 C   0  0  0  0  0  0  0  0  0  0  0  0
   -1.2554   -0.1456    0.0000 O   0  0  0  0  0  0  0  0  0  0  0  0
   -0.5410   -1.3831    0.0000 C   0  0  2  0  0  0  0  0  0  0  0  0
    0.1264   -1.8680    0.0000 C   0  0  0  0  0  0  0  0  0  0  0  0
   -0.1285   -2.6526    0.0000 C   0  0  0  0  0  0  0  0  0  0  0  0
   -0.9535   -2.6526    0.0000 C   0  0  0  0  0  0  0  0  0  0  0  0
   -1.2084   -1.8680    0.0000 N   0  0  0  0  0  0  0  0  0  0  0  0
   -1.9931   -1.6130    0.0000 C   0  0  0  0  0  0  0  0  0  0  0  0
   -2.1646   -0.8061    0.0000 O   0  0  0  0  0  0  0  0  0  0  0  0
   -2.6061   -2.1651    0.0000 C   0  0  0  0  0  0  0  0  0  0  0  0
   -3.3907   -1.9101    0.0000 O   0  0  0  0  0  0  0  0  0  0  0  0
   -2.4346   -2.9720    0.0000 C   0  0  0  0  0  0  0  0  0  0  0  0
   -1.9974   -3.6717    0.0000 C   0  0  0  0  0  0  0  0  0  0  0  0
   -2.3847   -4.4001    0.0000 C   0  0  0  0  0  0  0  0  0  0  0  0
   -3.2092   -4.4289    0.0000 C   0  0  0  0  0  0  0  0  0  0  0  0
   -3.6464   -3.7293    0.0000 C   0  0  0  0  0  0  0  0  0  0  0  0
   -3.2591   -3.0009    0.0000 C   0  0  0  0  0  0  0  0  0  0  0  0
   -1.6697   -2.6630    0.0000 O   0  0  0  0  0  0  0  0  0  0  0  0
   -1.0196   -3.1709    0.0000 C   0  0  0  0  0  0  0  0  0  0  0  0
  1  2  1  0  0  0  0
  2  3  1  0  0  0  0
  3  4  1  0  0  0  0
  4  5  2  0  0  0  0
  6  4  1  6  0  0  0
  6  7  1  0  0  0  0
  7  8  1  0  0  0  0
  8  9  1  0  0  0  0
  9 10  1  0  0  0  0
  6 10  1  0  0  0  0
 10 11  1  0  0  0  0
 11 12  2  0  0  0  0
 11 13  1  0  0  0  0
 13 14  2  0  0  0  0
 13 15  1  0  0  0  0
 15 16  1  0  0  0  0
 16 17  1  0  0  0  0
 17 18  1  0  0  0  0
 18 19  1  0  0  0  0
 19 20  1  0  0  0  0
 15 20  1  0  0  0  0
 15 21  1  0  0  0  0
 21 22  1  0  0  0  0
M  END
$$$$
