
  Mrv2102 08282505542D          

 26 30  0  0  1  0            999 V2000
    2.4710    2.2407    0.0000 C   0  0  0  0  0  0  0  0  0  0  0  0
    2.1299    2.9919    0.0000 C   0  0  1  0  0  0  0  0  0  0  0  0
    2.6099    3.6629    0.0000 C   0  0  0  0  0  0  0  0  0  0  0  0
    2.2688    4.4141    0.0000 C   0  0  0  0  0  0  0  0  0  0  0  0
    1.4477    4.4942    0.0000 C   0  0  1  0  0  0  0  0  0  0  0  0
    1.1066    5.2454    0.0000 C   0  0  0  0  0  0  0  0  0  0  0  0
    0.2855    5.3255    0.0000 C   0  0  0  0  0  0  0  0  0  0  0  0
   -0.1945    4.6546    0.0000 C   0  0  0  0  0  0  0  0  0  0  0  0
    0.1466    3.9034    0.0000 C   0  0  0  0  0  0  0  0  0  0  0  0
    0.9677    3.8232    0.0000 C   0  0  2  0  0  0  0  0  0  0  0  0
    1.3089    3.0721    0.0000 C   0  0  1  0  0  0  0  0  0  0  0  0
    0.8289    2.4010    0.0000 C   0  0  0  0  0  0  0  0  0  0  0  0
    0.0078    2.4812    0.0000 O   0  0  0  0  0  0  0  0  0  0  0  0
    1.1700    1.6498    0.0000 C   0  0  1  0  0  0  0  0  0  0  0  0
    2.0047    1.4920    0.0000 C   0  0  2  0  0  0  0  0  0  0  0  0
    2.8389    1.6501    0.0000 O   0  0  0  0  0  0  0  0  0  0  0  0
    3.2604    0.9197    0.0000 C   0  0  0  0  0  0  0  0  0  0  0  0
    4.0818    0.8427    0.0000 O   0  0  0  0  0  0  0  0  0  0  0  0
    2.7061    0.2749    0.0000 C   0  0  2  0  0  0  0  0  0  0  0  0
    2.4217   -0.5253    0.0000 C   0  0  0  0  0  0  0  0  0  0  0  0
    1.5786   -0.5250    0.0000 C   0  0  0  0  0  0  0  0  0  0  0  0
    1.2953    0.2746    0.0000 N   0  0  0  0  0  0  0  0  0  0  0  0
    0.7413    0.9203    0.0000 C   0  0  0  0  0  0  0  0  0  0  0  0
   -0.0805    0.8470    0.0000 O   0  0  0  0  0  0  0  0  0  0  0  0
    2.0006    0.6807    0.0000 C   0  0  2  0  0  0  0  0  0  0  0  0
    1.2874    1.0954    0.0000 O   0  0  0  0  0  0  0  0  0  0  0  0
  2  1  1  6  0  0  0
  2  3  1  0  0  0  0
  3  4  2  0  0  0  0
  5  4  1  6  0  0  0
  5  6  1  0  0  0  0
  6  7  1  0  0  0  0
  7  8  1  0  0  0  0
  8  9  1  0  0  0  0
 10  9  1  1  0  0  0
 10  5  1  0  0  0  0
 10 11  1  0  0  0  0
 11  2  1  0  0  0  0
 11 12  1  6  0  0  0
 12 13  2  0  0  0  0
 14 12  1  1  0  0  0
 15 14  1  0  0  0  0
 15 16  1  6  0  0  0
 16 17  1  0  0  0  0
 17 18  2  0  0  0  0
 19 17  1  6  0  0  0
 19 20  1  0  0  0  0
 20 21  1  0  0  0  0
 21 22  1  0  0  0  0
 22 23  1  0  0  0  0
 14 23  1  0  0  0  0
 23 24  2  0  0  0  0
 25 22  1  0  0  0  0
 15 25  1  0  0  0  0
 25 19  1  0  0  0  0
 25 26  1  1  0  0  0
M  END
$$$$
