
  Mrv2102 08282505582D          

 24 28  0  0  1  0            999 V2000
    2.9526    4.4609    0.0000 C   0  0  0  0  0  0  0  0  0  0  0  0
    2.4940    3.7752    0.0000 C   0  0  0  0  0  0  0  0  0  0  0  0
    2.9128    3.0644    0.0000 C   0  0  0  0  0  0  0  0  0  0  0  0
    3.7367    3.0224    0.0000 C   0  0  0  0  0  0  0  0  0  0  0  0
    3.9513    2.2258    0.0000 C   0  0  1  0  0  0  0  0  0  0  0  0
    3.9957    1.4020    0.0000 O   0  0  0  0  0  0  0  0  0  0  0  0
    3.2600    1.7755    0.0000 C   0  0  2  0  0  0  0  0  0  0  0  0
    2.8117    1.0830    0.0000 C   0  0  0  0  0  0  0  0  0  0  0  0
    2.6182    2.2938    0.0000 C   0  0  2  0  0  0  0  0  0  0  0  0
    1.8320    2.0437    0.0000 C   0  0  1  0  0  0  0  0  0  0  0  0
    1.6077    1.2498    0.0000 O   0  0  0  0  0  0  0  0  0  0  0  0
    0.7833    1.2178    0.0000 C   0  0  0  0  0  0  0  0  0  0  0  0
    0.3246    0.5321    0.0000 O   0  0  0  0  0  0  0  0  0  0  0  0
    0.4982    1.9919    0.0000 C   0  0  1  0  0  0  0  0  0  0  0  0
   -0.2958    2.2162    0.0000 C   0  0  0  0  0  0  0  0  0  0  0  0
   -0.4984    3.0160    0.0000 N   0  0  0  0  0  0  0  0  0  0  0  0
   -1.2924    3.2403    0.0000 C   0  0  0  0  0  0  0  0  0  0  0  0
   -1.4950    4.0400    0.0000 C   0  0  0  0  0  0  0  0  0  0  0  0
   -0.9038    4.6154    0.0000 O   0  0  0  0  0  0  0  0  0  0  0  0
   -0.1099    4.3911    0.0000 C   0  0  0  0  0  0  0  0  0  0  0  0
    0.0928    3.5914    0.0000 C   0  0  0  0  0  0  0  0  0  0  0  0
    1.1463    2.5024    0.0000 C   0  0  2  0  0  0  0  0  0  0  0  0
    1.0774    3.3245    0.0000 C   0  0  0  0  0  0  0  0  0  0  0  0
    1.6772    3.8909    0.0000 C   0  0  0  0  0  0  0  0  0  0  0  0
  1  2  1  0  0  0  0
  2  3  2  0  0  0  0
  3  4  1  0  0  0  0
  5  4  1  0  0  0  0
  5  6  1  1  0  0  0
  7  6  1  0  0  0  0
  7  5  1  0  0  0  0
  7  8  1  6  0  0  0
  7  9  1  0  0  0  0
  9  3  1  6  0  0  0
  9 10  1  0  0  0  0
 10 11  1  1  0  0  0
 11 12  1  0  0  0  0
 12 13  2  0  0  0  0
 14 12  1  0  0  0  0
 14 15  1  1  0  0  0
 15 16  1  0  0  0  0
 16 17  1  0  0  0  0
 17 18  1  0  0  0  0
 18 19  1  0  0  0  0
 19 20  1  0  0  0  0
 20 21  1  0  0  0  0
 16 21  1  0  0  0  0
 22 14  1  0  0  0  0
 10 22  1  0  0  0  0
 22 23  1  6  0  0  0
 23 24  1  0  0  0  0
  2 24  1  0  0  0  0
M  END
$$$$
