
  Mrv2102 08282506482D          

 30 32  0  0  1  0            999 V2000
    3.2420    3.3713    0.0000 C   0  0  0  0  0  0  0  0  0  0  0  0
    3.0133    2.5787    0.0000 C   0  0  0  0  0  0  0  0  0  0  0  0
    2.2124    2.3804    0.0000 C   0  0  0  0  0  0  0  0  0  0  0  0
    3.5854    1.9842    0.0000 C   0  0  2  0  0  0  0  0  0  0  0  0
    4.3862    2.1824    0.0000 C   0  0  0  0  0  0  0  0  0  0  0  0
    4.9582    1.5880    0.0000 C   0  0  0  0  0  0  0  0  0  0  0  0
    4.7295    0.7954    0.0000 C   0  0  1  0  0  0  0  0  0  0  0  0
    5.3016    0.2009    0.0000 C   0  0  0  0  0  0  0  0  0  0  0  0
    3.9287    0.5972    0.0000 C   0  0  1  0  0  0  0  0  0  0  0  0
    4.2629   -0.1571    0.0000 O   0  0  0  0  0  0  0  0  0  0  0  0
    3.3566    1.1916    0.0000 C   0  0  0  0  0  0  0  0  0  0  0  0
    3.2440    0.1370    0.0000 C   0  0  0  0  0  0  0  0  0  0  0  0
    2.5856    0.4174    0.0000 O   0  0  0  0  0  0  0  0  0  0  0  0
    3.3265   -1.0725    0.0000 C   0  0  0  0  0  0  0  0  0  0  0  0
    3.7390   -1.7870    0.0000 O   0  0  0  0  0  0  0  0  0  0  0  0
    2.2540   -0.8250    0.0000 N   0  0  0  0  0  0  0  0  0  0  0  0
    1.8415   -0.1105    0.0000 C   0  0  2  0  0  0  0  0  0  0  0  0
    1.0165   -0.1105    0.0000 C   0  0  0  0  0  0  0  0  0  0  0  0
    0.6040   -0.8250    0.0000 C   0  0  0  0  0  0  0  0  0  0  0  0
    1.0165   -1.5395    0.0000 C   0  0  0  0  0  0  0  0  0  0  0  0
    1.8415   -1.5395    0.0000 C   0  0  1  0  0  0  0  0  0  0  0  0
    2.2540   -2.2540    0.0000 C   0  0  0  0  0  0  0  0  0  0  0  0
    1.8415   -2.9684    0.0000 O   0  0  0  0  0  0  0  0  0  0  0  0
    3.0790   -2.2540    0.0000 O   0  0  0  0  0  0  0  0  0  0  0  0
    3.4915   -1.5395    0.0000 C   0  0  0  0  0  0  0  0  0  0  0  0
    3.0790   -0.8250    0.0000 C   0  0  0  0  0  0  0  0  0  0  0  0
    3.4915   -0.1105    0.0000 C   0  0  0  0  0  0  0  0  0  0  0  0
    3.0790    0.6040    0.0000 O   0  0  0  0  0  0  0  0  0  0  0  0
    2.2540    0.6040    0.0000 C   0  0  0  0  0  0  0  0  0  0  0  0
    1.8415    1.3184    0.0000 O   0  0  0  0  0  0  0  0  0  0  0  0
  1  2  1  0  0  0  0
  2  3  1  0  0  0  0
  4  2  1  6  0  0  0
  4  5  1  0  0  0  0
  5  6  1  0  0  0  0
  7  6  1  0  0  0  0
  7  8  1  1  0  0  0
  7  9  1  0  0  0  0
  9 10  1  1  0  0  0
  9 11  1  0  0  0  0
  4 11  1  0  0  0  0
  9 12  1  6  0  0  0
 12 13  2  0  0  0  0
 12 14  1  0  0  0  0
 14 15  2  0  0  0  0
 14 16  1  0  0  0  0
 17 16  1  6  0  0  0
 17 18  1  0  0  0  0
 18 19  1  0  0  0  0
 19 20  1  0  0  0  0
 21 20  1  0  0  0  0
 21 16  1  6  0  0  0
 21 22  1  0  0  0  0
 22 23  2  0  0  0  0
 22 24  1  0  0  0  0
 24 25  1  0  0  0  0
 25 26  1  0  0  0  0
 26 27  1  0  0  0  0
 27 28  1  0  0  0  0
 28 29  1  0  0  0  0
 17 29  1  0  0  0  0
 29 30  2  0  0  0  0
M  END
$$$$
