
  Mrv2102 08282506502D          

 23 25  0  0  1  0            999 V2000
    5.5161    1.3902    0.0000 C   0  0  0  0  0  0  0  0  0  0  0  0
    4.8344    1.8548    0.0000 C   0  0  0  0  0  0  0  0  0  0  0  0
    4.8959    2.6775    0.0000 O   0  0  0  0  0  0  0  0  0  0  0  0
    4.0911    1.4967    0.0000 N   0  0  0  0  0  0  0  0  0  0  0  0
    3.4094    1.9614    0.0000 C   0  0  0  0  0  0  0  0  0  0  0  0
    2.6662    1.6033    0.0000 C   0  0  1  0  0  0  0  0  0  0  0  0
    1.9396    1.9941    0.0000 C   0  0  1  0  0  0  0  0  0  0  0  0
    1.3434    1.4239    0.0000 C   0  0  2  0  0  0  0  0  0  0  0  0
    1.7015    0.6807    0.0000 O   0  0  0  0  0  0  0  0  0  0  0  0
    2.5190    0.7915    0.0000 C   0  0  0  0  0  0  0  0  0  0  0  0
    3.0892    0.1953    0.0000 O   0  0  0  0  0  0  0  0  0  0  0  0
    0.5259    1.3130    0.0000 C   0  0  2  0  0  0  0  0  0  0  0  0
   -0.1759    0.8792    0.0000 O   0  0  0  0  0  0  0  0  0  0  0  0
   -0.2007    1.7038    0.0000 C   0  0  1  0  0  0  0  0  0  0  0  0
   -1.0021    1.5081    0.0000 C   0  0  0  0  0  0  0  0  0  0  0  0
   -0.5588    2.4471    0.0000 C   0  0  0  0  0  0  0  0  0  0  0  0
   -0.4115    3.2589    0.0000 C   0  0  0  0  0  0  0  0  0  0  0  0
    0.4060    3.3697    0.0000 C   0  0  0  0  0  0  0  0  0  0  0  0
    1.0022    3.9400    0.0000 C   0  0  0  0  0  0  0  0  0  0  0  0
    0.8913    4.7575    0.0000 C   0  0  0  0  0  0  0  0  0  0  0  0
    1.7287    3.5491    0.0000 C   0  0  0  0  0  0  0  0  0  0  0  0
    2.0868    2.8059    0.0000 C   0  0  2  0  0  0  0  0  0  0  0  0
    2.9043    2.9168    0.0000 O   0  0  0  0  0  0  0  0  0  0  0  0
  1  2  1  0  0  0  0
  2  3  2  0  0  0  0
  2  4  1  0  0  0  0
  4  5  1  0  0  0  0
  6  5  1  6  0  0  0
  7  6  1  1  0  0  0
  7  8  1  0  0  0  0
  8  9  1  6  0  0  0
  9 10  1  0  0  0  0
  6 10  1  0  0  0  0
 10 11  2  0  0  0  0
  8 12  1  0  0  0  0
 12 13  1  6  0  0  0
 14 13  1  0  0  0  0
 12 14  1  0  0  0  0
 14 15  1  1  0  0  0
 14 16  1  0  0  0  0
 16 17  1  0  0  0  0
 17 18  1  0  0  0  0
 18 19  2  0  0  0  0
 19 20  1  0  0  0  0
 19 21  1  0  0  0  0
 22 21  1  0  0  0  0
  7 22  1  0  0  0  0
 22 23  1  6  0  0  0
M  END
$$$$
