
  Mrv2102 08282506532D          

 25 26  0  0  1  0            999 V2000
    4.7537   -1.1472    0.0000 C   0  0  0  0  0  0  0  0  0  0  0  0
    3.9353   -1.0431    0.0000 O   0  0  0  0  0  0  0  0  0  0  0  0
    3.6162   -0.2823    0.0000 C   0  0  2  0  0  0  0  0  0  0  0  0
    2.7978   -0.1781    0.0000 C   0  0  0  0  0  0  0  0  0  0  0  0
    2.2985   -0.8349    0.0000 C   0  0  0  0  0  0  0  0  0  0  0  0
    1.4801   -0.7307    0.0000 C   0  0  0  0  0  0  0  0  0  0  0  0
    1.0951    0.0859    0.0000 C   0  0  0  0  0  0  0  0  0  0  0  0
    1.6786    0.6692    0.0000 O   0  0  0  0  0  0  0  0  0  0  0  0
    0.3490    0.4378    0.0000 N   0  0  0  0  0  0  0  0  0  0  0  0
   -0.4616    0.2839    0.0000 C   0  0  0  0  0  0  0  0  0  0  0  0
   -0.8584    1.0072    0.0000 C   0  0  0  0  0  0  0  0  0  0  0  0
   -0.2931    1.6081    0.0000 C   0  0  0  0  0  0  0  0  0  0  0  0
    0.4531    1.2562    0.0000 C   0  0  2  0  0  0  0  0  0  0  0  0
    1.2636    1.4101    0.0000 C   0  0  0  0  0  0  0  0  0  0  0  0
    0.8448    2.1209    0.0000 O   0  0  0  0  0  0  0  0  0  0  0  0
    1.8407    2.1043    0.0000 O   0  0  0  0  0  0  0  0  0  0  0  0
    2.6591    2.0002    0.0000 C   0  0  0  0  0  0  0  0  0  0  0  0
    3.1585    2.6569    0.0000 C   0  0  1  0  0  0  0  0  0  0  0  0
    2.8394    3.4177    0.0000 C   0  0  0  0  0  0  0  0  0  0  0  0
    3.9769    2.5528    0.0000 C   0  0  0  0  0  0  0  0  0  0  0  0
    4.4763    3.2095    0.0000 O   0  0  0  0  0  0  0  0  0  0  0  0
    4.2959    1.7920    0.0000 O   0  0  0  0  0  0  0  0  0  0  0  0
    3.7966    1.1352    0.0000 C   0  0  0  0  0  0  0  0  0  0  0  0
    4.1156    0.3745    0.0000 C   0  0  1  0  0  0  0  0  0  0  0  0
    4.9340    0.2703    0.0000 C   0  0  0  0  0  0  0  0  0  0  0  0
  1  2  1  0  0  0  0
  3  2  1  6  0  0  0
  3  4  1  0  0  0  0
  4  5  2  0  0  0  0
  5  6  1  0  0  0  0
  6  7  1  0  0  0  0
  7  8  2  0  0  0  0
  7  9  1  0  0  0  0
  9 10  1  0  0  0  0
 10 11  1  0  0  0  0
 11 12  1  0  0  0  0
 13 12  1  0  0  0  0
 13  9  1  6  0  0  0
 13 14  1  0  0  0  0
 14 15  2  0  0  0  0
 14 16  1  0  0  0  0
 16 17  1  0  0  0  0
 18 17  1  0  0  0  0
 18 19  1  1  0  0  0
 18 20  1  0  0  0  0
 20 21  2  0  0  0  0
 20 22  1  0  0  0  0
 22 23  1  0  0  0  0
 24 23  1  0  0  0  0
  3 24  1  0  0  0  0
 24 25  1  1  0  0  0
M  END
$$$$
