
  Mrv2102 08282505592D          

 23 24  0  0  1  0            999 V2000
    5.9050   -0.4011    0.0000 C   0  0  0  0  0  0  0  0  0  0  0  0
    6.3175   -1.1155    0.0000 C   0  0  0  0  0  0  0  0  0  0  0  0
    7.1425   -1.1155    0.0000 O   0  0  0  0  0  0  0  0  0  0  0  0
    7.5550   -1.8300    0.0000 C   0  0  0  0  0  0  0  0  0  0  0  0
    7.1425   -2.5445    0.0000 O   0  0  0  0  0  0  0  0  0  0  0  0
    8.3800   -1.8300    0.0000 C   0  0  0  0  0  0  0  0  0  0  0  0
    8.7925   -2.5445    0.0000 C   0  0  0  0  0  0  0  0  0  0  0  0
    9.6175   -2.5445    0.0000 C   0  0  2  0  0  0  0  0  0  0  0  0
   10.0300   -3.2590    0.0000 N   0  0  0  0  0  0  0  0  0  0  0  0
   10.8505   -3.3452    0.0000 C   0  0  0  0  0  0  0  0  0  0  0  0
   11.4025   -2.7321    0.0000 O   0  0  0  0  0  0  0  0  0  0  0  0
   11.0220   -4.1522    0.0000 C   0  0  1  0  0  0  0  0  0  0  0  0
   11.6351   -4.7042    0.0000 C   0  0  0  0  0  0  0  0  0  0  0  0
   11.2996   -5.4579    0.0000 O   0  0  0  0  0  0  0  0  0  0  0  0
   10.4791   -5.3716    0.0000 C   0  0  0  0  0  0  0  0  0  0  0  0
   10.3076   -4.5647    0.0000 C   0  0  1  0  0  0  0  0  0  0  0  0
    9.6944   -4.0126    0.0000 C   0  0  0  0  0  0  0  0  0  0  0  0
    8.8875   -4.1841    0.0000 O   0  0  0  0  0  0  0  0  0  0  0  0
   10.0300   -1.8300    0.0000 C   0  0  0  0  0  0  0  0  0  0  0  0
    9.6175   -1.1155    0.0000 O   0  0  0  0  0  0  0  0  0  0  0  0
   10.8550   -1.8300    0.0000 O   0  0  0  0  0  0  0  0  0  0  0  0
   11.2675   -1.1155    0.0000 C   0  0  0  0  0  0  0  0  0  0  0  0
   12.0925   -1.1155    0.0000 C   0  0  0  0  0  0  0  0  0  0  0  0
  1  2  1  0  0  0  0
  2  3  1  0  0  0  0
  3  4  1  0  0  0  0
  4  5  2  0  0  0  0
  4  6  1  0  0  0  0
  6  7  1  0  0  0  0
  8  7  1  1  0  0  0
  8  9  1  0  0  0  0
  9 10  1  0  0  0  0
 10 11  2  0  0  0  0
 12 10  1  1  0  0  0
 12 13  1  0  0  0  0
 13 14  1  0  0  0  0
 14 15  1  0  0  0  0
 16 15  1  1  0  0  0
 12 16  1  0  0  0  0
 16 17  1  0  0  0  0
  9 17  1  0  0  0  0
 17 18  2  0  0  0  0
  8 19  1  0  0  0  0
 19 20  2  0  0  0  0
 19 21  1  0  0  0  0
 21 22  1  0  0  0  0
 22 23  1  0  0  0  0
M  END
$$$$
