
  Mrv2102 08282506502D          

 18 19  0  0  1  0            999 V2000
    1.4991   -3.1424    0.0000 C   0  0  0  0  0  0  0  0  0  0  0  0
    1.4991   -2.3174    0.0000 O   0  0  0  0  0  0  0  0  0  0  0  0
    0.7846   -1.9049    0.0000 C   0  0  0  0  0  0  0  0  0  0  0  0
    0.0701   -2.3174    0.0000 O   0  0  0  0  0  0  0  0  0  0  0  0
    0.7846   -1.0799    0.0000 C   0  0  2  0  0  0  0  0  0  0  0  0
    0.0000   -1.3349    0.0000 N   0  0  0  0  0  0  0  0  0  0  0  0
   -0.2549   -2.1195    0.0000 C   0  0  0  0  0  0  0  0  0  0  0  0
   -0.4849   -0.6674    0.0000 C   0  0  0  0  0  0  0  0  0  0  0  0
   -1.3099   -0.6674    0.0000 O   0  0  0  0  0  0  0  0  0  0  0  0
    0.0000    0.0000    0.0000 C   0  0  2  0  0  0  0  0  0  0  0  0
   -0.2549    0.7846    0.0000 C   0  0  0  0  0  0  0  0  0  0  0  0
    0.7846   -0.2549    0.0000 C   0  0  2  0  0  0  0  0  0  0  0  0
    0.7846    0.5701    0.0000 O   0  0  0  0  0  0  0  0  0  0  0  0
    1.5693    0.0000    0.0000 C   0  0  1  0  0  0  0  0  0  0  0  0
    1.8242    0.7846    0.0000 C   0  0  0  0  0  0  0  0  0  0  0  0
    2.0541   -0.6674    0.0000 O   0  0  0  0  0  0  0  0  0  0  0  0
    1.5693   -1.3349    0.0000 C   0  0  0  0  0  0  0  0  0  0  0  0
    1.8242   -2.1195    0.0000 O   0  0  0  0  0  0  0  0  0  0  0  0
  1  2  1  0  0  0  0
  2  3  1  0  0  0  0
  3  4  2  0  0  0  0
  5  3  1  6  0  0  0
  5  6  1  0  0  0  0
  6  7  1  0  0  0  0
  6  8  1  0  0  0  0
  8  9  2  0  0  0  0
 10  8  1  0  0  0  0
 10 11  1  6  0  0  0
 12 10  1  0  0  0  0
 12  5  1  0  0  0  0
 12 13  1  6  0  0  0
 12 14  1  0  0  0  0
 14 15  1  1  0  0  0
 14 16  1  0  0  0  0
 16 17  1  0  0  0  0
  5 17  1  0  0  0  0
 17 18  2  0  0  0  0
M  END
$$$$
