
  Mrv2102 08282506512D          

 22 24  0  0  0  0            999 V2000
    6.3398    0.5765    0.0000 C   0  0  0  0  0  0  0  0  0  0  0  0
    5.5998    0.9411    0.0000 C   0  0  0  0  0  0  0  0  0  0  0  0
    5.5068    0.1214    0.0000 C   0  0  0  0  0  0  0  0  0  0  0  0
    6.1153   -0.4356    0.0000 O   0  0  0  0  0  0  0  0  0  0  0  0
    4.6984   -0.0434    0.0000 O   0  0  0  0  0  0  0  0  0  0  0  0
    4.2918    0.6745    0.0000 C   0  0  0  0  0  0  0  0  0  0  0  0
    3.4488    0.9974    0.0000 C   0  0  0  0  0  0  0  0  0  0  0  0
    2.6621    0.7490    0.0000 C   0  0  0  0  0  0  0  0  0  0  0  0
    2.1827    1.4204    0.0000 C   0  0  0  0  0  0  0  0  0  0  0  0
    2.6732    2.0839    0.0000 N   0  0  0  0  0  0  0  0  0  0  0  0
    2.6800    2.9088    0.0000 C   0  0  0  0  0  0  0  0  0  0  0  0
    3.4667    3.1572    0.0000 C   0  0  0  0  0  0  0  0  0  0  0  0
    3.9016    2.3527    0.0000 C   0  0  0  0  0  0  0  0  0  0  0  0
    4.6841    2.0913    0.0000 O   0  0  0  0  0  0  0  0  0  0  0  0
    5.3017    2.6382    0.0000 C   0  0  0  0  0  0  0  0  0  0  0  0
    5.1369    3.4466    0.0000 O   0  0  0  0  0  0  0  0  0  0  0  0
    6.0842    2.3768    0.0000 C   0  0  0  0  0  0  0  0  0  0  0  0
    6.7018    2.9238    0.0000 C   0  0  0  0  0  0  0  0  0  0  0  0
    6.2491    1.5685    0.0000 C   0  0  0  0  0  0  0  0  0  0  0  0
    7.0603    1.7185    0.0000 C   0  0  0  0  0  0  0  0  0  0  0  0
    6.8330    0.9857    0.0000 O   0  0  0  0  0  0  0  0  0  0  0  0
    3.2840    1.8058    0.0000 C   0  0  0  0  0  0  0  0  0  0  0  0
  1  2  1  0  0  0  0
  2  3  1  0  0  0  0
  3  4  2  0  0  0  0
  3  5  1  0  0  0  0
  5  6  1  0  0  0  0
  6  7  1  0  0  0  0
  7  8  2  0  0  0  0
  8  9  1  0  0  0  0
  9 10  1  0  0  0  0
 10 11  1  0  0  0  0
 11 12  1  0  0  0  0
 12 13  1  0  0  0  0
 13 14  1  0  0  0  0
 14 15  1  0  0  0  0
 15 16  2  0  0  0  0
 15 17  1  0  0  0  0
 17 18  1  0  0  0  0
 17 19  1  0  0  0  0
  2 19  1  0  0  0  0
 19 20  1  0  0  0  0
 19 21  1  0  0  0  0
 13 22  1  0  0  0  0
  7 22  1  0  0  0  0
 10 22  1  0  0  0  0
M  END
$$$$
