
  Mrv2102 08282506552D          

 23 24  0  0  0  0            999 V2000
    0.7666    1.1937    0.0000 C   0  0  0  0  0  0  0  0  0  0  0  0
    0.0521    0.7812    0.0000 C   0  0  0  0  0  0  0  0  0  0  0  0
    0.0521   -0.0438    0.0000 O   0  0  0  0  0  0  0  0  0  0  0  0
   -0.6623   -0.4563    0.0000 C   0  0  0  0  0  0  0  0  0  0  0  0
   -1.3768   -0.0438    0.0000 O   0  0  0  0  0  0  0  0  0  0  0  0
   -0.6623   -1.2813    0.0000 C   0  0  0  0  0  0  0  0  0  0  0  0
    0.0521   -1.6938    0.0000 C   0  0  0  0  0  0  0  0  0  0  0  0
    0.0521   -2.5188    0.0000 C   0  0  0  0  0  0  0  0  0  0  0  0
   -0.6623   -2.9313    0.0000 C   0  0  0  0  0  0  0  0  0  0  0  0
   -1.3768   -2.5188    0.0000 C   0  0  0  0  0  0  0  0  0  0  0  0
   -1.3768   -1.6938    0.0000 N   0  0  0  0  0  0  0  0  0  0  0  0
   -2.0913   -1.2813    0.0000 C   0  0  0  0  0  0  0  0  0  0  0  0
   -2.0913   -0.4563    0.0000 O   0  0  0  0  0  0  0  0  0  0  0  0
   -2.8057   -1.6938    0.0000 C   0  0  0  0  0  0  0  0  0  0  0  0
   -3.5202   -1.2813    0.0000 O   0  0  0  0  0  0  0  0  0  0  0  0
   -2.8057   -2.5188    0.0000 C   0  0  0  0  0  0  0  0  0  0  0  0
   -2.5236   -3.2940    0.0000 C   0  0  0  0  0  0  0  0  0  0  0  0
   -3.0539   -3.9260    0.0000 C   0  0  0  0  0  0  0  0  0  0  0  0
   -3.8664   -3.7827    0.0000 C   0  0  0  0  0  0  0  0  0  0  0  0
   -4.1485   -3.0075    0.0000 C   0  0  0  0  0  0  0  0  0  0  0  0
   -3.6182   -2.3755    0.0000 C   0  0  0  0  0  0  0  0  0  0  0  0
   -1.9933   -2.3755    0.0000 O   0  0  0  0  0  0  0  0  0  0  0  0
   -1.4630   -3.0075    0.0000 C   0  0  0  0  0  0  0  0  0  0  0  0
  1  2  1  0  0  0  0
  2  3  1  0  0  0  0
  3  4  1  0  0  0  0
  4  5  2  0  0  0  0
  4  6  1  0  0  0  0
  6  7  1  0  0  0  0
  7  8  1  0  0  0  0
  8  9  1  0  0  0  0
  9 10  1  0  0  0  0
 10 11  1  0  0  0  0
  6 11  1  0  0  0  0
 11 12  1  0  0  0  0
 12 13  2  0  0  0  0
 12 14  1  0  0  0  0
 14 15  2  0  0  0  0
 14 16  1  0  0  0  0
 16 17  1  0  0  0  0
 17 18  1  0  0  0  0
 18 19  1  0  0  0  0
 19 20  1  0  0  0  0
 20 21  1  0  0  0  0
 16 21  1  0  0  0  0
 16 22  1  0  0  0  0
 22 23  1  0  0  0  0
M  END
$$$$
