
  Mrv2102 08282506592D          

 35 39  0  0  1  0            999 V2000
    4.4829   -1.8988    0.0000 C   0  0  0  0  0  0  0  0  0  0  0  0
    4.0130   -1.2207    0.0000 C   0  0  1  0  0  0  0  0  0  0  0  0
    3.1908   -1.2885    0.0000 C   0  0  1  0  0  0  0  0  0  0  0  0
    2.6911   -1.9449    0.0000 C   0  0  2  0  0  0  0  0  0  0  0  0
    2.9283   -2.7350    0.0000 C   0  0  0  0  0  0  0  0  0  0  0  0
    2.3627   -3.3356    0.0000 C   0  0  0  0  0  0  0  0  0  0  0  0
    2.6000   -4.1257    0.0000 C   0  0  0  0  0  0  0  0  0  0  0  0
    2.0343   -4.7263    0.0000 C   0  0  0  0  0  0  0  0  0  0  0  0
    1.2314   -4.5367    0.0000 C   0  0  0  0  0  0  0  0  0  0  0  0
    0.9941   -3.7466    0.0000 C   0  0  0  0  0  0  0  0  0  0  0  0
    1.5598   -3.1460    0.0000 C   0  0  0  0  0  0  0  0  0  0  0  0
    1.9123   -1.6724    0.0000 N   0  0  0  0  0  0  0  0  0  0  0  0
    2.1088   -0.9985    0.0000 C   0  0  0  0  0  0  0  0  0  0  0  0
    1.2745   -0.3478    0.0000 O   0  0  0  0  0  0  0  0  0  0  0  0
    2.7210   -0.6103    0.0000 C   0  0  2  0  0  0  0  0  0  0  0  0
    1.8988   -0.6782    0.0000 O   0  0  0  0  0  0  0  0  0  0  0  0
    1.5464   -1.4241    0.0000 C   0  0  0  0  0  0  0  0  0  0  0  0
    2.0162   -2.1022    0.0000 O   0  0  0  0  0  0  0  0  0  0  0  0
    0.7242   -1.4919    0.0000 C   0  0  0  0  0  0  0  0  0  0  0  0
    0.2544   -0.8138    0.0000 C   0  0  0  0  0  0  0  0  0  0  0  0
    0.6068   -0.0678    0.0000 C   0  0  0  0  0  0  0  0  0  0  0  0
    1.4290    0.0000    0.0000 C   0  0  0  0  0  0  0  0  0  0  0  0
    0.1369    0.6103    0.0000 C   0  0  0  0  0  0  0  0  0  0  0  0
   -0.6853    0.5425    0.0000 O   0  0  0  0  0  0  0  0  0  0  0  0
    0.4893    1.3563    0.0000 C   0  0  0  0  0  0  0  0  0  0  0  0
   -0.3065    1.5738    0.0000 C   0  0  0  0  0  0  0  0  0  0  0  0
    0.5653    2.1778    0.0000 O   0  0  0  0  0  0  0  0  0  0  0  0
    1.3115    1.4241    0.0000 C   0  0  0  0  0  0  0  0  0  0  0  0
    1.7813    0.7460    0.0000 C   0  0  0  0  0  0  0  0  0  0  0  0
    2.6035    0.8138    0.0000 C   0  0  0  0  0  0  0  0  0  0  0  0
    3.0733    0.1356    0.0000 C   0  0  1  0  0  0  0  0  0  0  0  0
    3.8956    0.2035    0.0000 C   0  0  2  0  0  0  0  0  0  0  0  0
    4.7178    0.2712    0.0000 O   0  0  0  0  0  0  0  0  0  0  0  0
    4.3654   -0.4747    0.0000 C   0  0  2  0  0  0  0  0  0  0  0  0
    5.1114   -0.8271    0.0000 C   0  0  0  0  0  0  0  0  0  0  0  0
  2  1  1  1  0  0  0
  3  2  1  0  0  0  0
  3  4  1  1  0  0  0
  4  5  1  6  0  0  0
  5  6  1  0  0  0  0
  6  7  2  0  0  0  0
  7  8  1  0  0  0  0
  8  9  2  0  0  0  0
  9 10  1  0  0  0  0
 10 11  2  0  0  0  0
  6 11  1  0  0  0  0
  4 12  1  0  0  0  0
 12 13  1  0  0  0  0
 13 14  2  0  0  0  0
 15 13  1  1  0  0  0
  3 15  1  0  0  0  0
 15 16  1  0  0  0  0
 16 17  1  0  0  0  0
 17 18  2  0  0  0  0
 17 19  1  0  0  0  0
 19 20  1  0  0  0  0
 20 21  1  0  0  0  0
 21 22  1  0  0  0  0
 21 23  1  0  0  0  0
 23 24  2  0  0  0  0
 23 25  1  0  0  0  0
 25 26  1  0  0  0  0
 25 27  1  0  0  0  0
 25 28  1  0  0  0  0
 28 29  1  0  0  0  0
 29 30  2  0  0  0  0
 31 30  1  1  0  0  0
 15 31  1  0  0  0  0
 31 32  1  0  0  0  0
 32 33  1  6  0  0  0
 34 33  1  0  0  0  0
  2 34  1  0  0  0  0
 34 32  1  0  0  0  0
 34 35  1  1  0  0  0
M  END
$$$$
