
  Mrv2102 08282506582D          

 19 21  0  0  0  0            999 V2000
   -0.6348    1.9775    0.0000 C   0  0  0  0  0  0  0  0  0  0  0  0
    0.0611    1.5342    0.0000 C   0  0  0  0  0  0  0  0  0  0  0  0
    0.0251    0.7100    0.0000 C   0  0  0  0  0  0  0  0  0  0  0  0
   -0.7067    0.3290    0.0000 C   0  0  0  0  0  0  0  0  0  0  0  0
    0.7209    0.2667    0.0000 N   0  0  0  0  0  0  0  0  0  0  0  0
    1.5028    0.5281    0.0000 C   0  0  0  0  0  0  0  0  0  0  0  0
    2.0915   -0.1481    0.0000 C   0  0  0  0  0  0  0  0  0  0  0  0
    2.7578   -0.8673    0.0000 O   0  0  0  0  0  0  0  0  0  0  0  0
    3.2354   -0.5934    0.0000 C   0  0  0  0  0  0  0  0  0  0  0  0
    3.2914    0.2936    0.0000 C   0  0  0  0  0  0  0  0  0  0  0  0
    2.5142    0.5650    0.0000 C   0  0  0  0  0  0  0  0  0  0  0  0
    2.4546   -1.3132    0.0000 C   0  0  0  0  0  0  0  0  0  0  0  0
    1.6645   -0.8324    0.0000 C   0  0  0  0  0  0  0  0  0  0  0  0
    0.8159   -0.5645    0.0000 C   0  0  0  0  0  0  0  0  0  0  0  0
    0.1793   -1.0893    0.0000 O   0  0  0  0  0  0  0  0  0  0  0  0
    2.5362   -2.1341    0.0000 C   0  0  0  0  0  0  0  0  0  0  0  0
    3.2879   -2.4739    0.0000 O   0  0  0  0  0  0  0  0  0  0  0  0
    1.8660   -2.6153    0.0000 O   0  0  0  0  0  0  0  0  0  0  0  0
    1.9476   -3.4362    0.0000 C   0  0  0  0  0  0  0  0  0  0  0  0
  1  2  1  0  0  0  0
  2  3  1  0  0  0  0
  3  4  1  0  0  0  0
  3  5  1  0  0  0  0
  5  6  1  0  0  0  0
  6  7  1  0  0  0  0
  7  8  1  0  0  0  0
  8  9  1  0  0  0  0
  9 10  1  0  0  0  0
 10 11  2  0  0  0  0
  7 11  1  0  0  0  0
  9 12  1  0  0  0  0
 12 13  1  0  0  0  0
  7 13  1  0  0  0  0
 13 14  1  0  0  0  0
  5 14  1  0  0  0  0
 14 15  2  0  0  0  0
 12 16  1  0  0  0  0
 16 17  2  0  0  0  0
 16 18  1  0  0  0  0
 18 19  1  0  0  0  0
M  END
$$$$
