
  Mrv2102 08282503142D          

 26 28  0  0  0  0            999 V2000
    7.2162    2.2373    0.0000 C   0  0  0  0  0  0  0  0  0  0  0  0
    6.4562    2.5583    0.0000 C   0  0  0  0  0  0  0  0  0  0  0  0
    6.3542    3.3769    0.0000 Cl  0  0  0  0  0  0  0  0  0  0  0  0
    5.7982    2.0606    0.0000 C   0  0  0  0  0  0  0  0  0  0  0  0
    5.4223    2.7950    0.0000 O   0  0  0  0  0  0  0  0  0  0  0  0
    6.4026    1.4990    0.0000 C   0  0  0  0  0  0  0  0  0  0  0  0
    6.2184    0.6948    0.0000 C   0  0  0  0  0  0  0  0  0  0  0  0
    5.4299    0.4523    0.0000 C   0  0  0  0  0  0  0  0  0  0  0  0
    6.8228    0.1333    0.0000 C   0  0  0  0  0  0  0  0  0  0  0  0
    7.2709    0.8260    0.0000 C   0  0  0  0  0  0  0  0  0  0  0  0
    7.5828   -0.1877    0.0000 O   0  0  0  0  0  0  0  0  0  0  0  0
    6.6386   -0.6709    0.0000 C   0  0  0  0  0  0  0  0  0  0  0  0
    7.2430   -1.2325    0.0000 O   0  0  0  0  0  0  0  0  0  0  0  0
    5.8501   -0.9135    0.0000 O   0  0  0  0  0  0  0  0  0  0  0  0
    5.2458   -0.3520    0.0000 C   0  0  0  0  0  0  0  0  0  0  0  0
    4.4573   -0.5946    0.0000 C   0  0  0  0  0  0  0  0  0  0  0  0
    3.9619   -1.2543    0.0000 C   0  0  0  0  0  0  0  0  0  0  0  0
    3.1814   -0.9871    0.0000 C   0  0  0  0  0  0  0  0  0  0  0  0
    3.1943   -0.1622    0.0000 N   0  0  0  0  0  0  0  0  0  0  0  0
    2.7199    0.5127    0.0000 C   0  0  0  0  0  0  0  0  0  0  0  0
    3.2153    1.1725    0.0000 C   0  0  0  0  0  0  0  0  0  0  0  0
    4.0370    0.7712    0.0000 C   0  0  0  0  0  0  0  0  0  0  0  0
    4.8256    1.0138    0.0000 O   0  0  0  0  0  0  0  0  0  0  0  0
    5.0097    1.8180    0.0000 C   0  0  0  0  0  0  0  0  0  0  0  0
    4.4053    2.3795    0.0000 O   0  0  0  0  0  0  0  0  0  0  0  0
    3.8529   -0.0330    0.0000 C   0  0  0  0  0  0  0  0  0  0  0  0
  1  2  1  0  0  0  0
  2  3  1  0  0  0  0
  2  4  1  0  0  0  0
  4  5  1  0  0  0  0
  4  6  1  0  0  0  0
  6  7  1  0  0  0  0
  7  8  1  0  0  0  0
  7  9  1  0  0  0  0
  9 10  1  0  0  0  0
  9 11  1  0  0  0  0
  9 12  1  0  0  0  0
 12 13  2  0  0  0  0
 12 14  1  0  0  0  0
 14 15  1  0  0  0  0
 15 16  1  0  0  0  0
 16 17  2  0  0  0  0
 17 18  1  0  0  0  0
 18 19  1  0  0  0  0
 19 20  1  0  0  0  0
 20 21  1  0  0  0  0
 21 22  1  0  0  0  0
 22 23  1  0  0  0  0
 23 24  1  0  0  0  0
  4 24  1  0  0  0  0
 24 25  2  0  0  0  0
 22 26  1  0  0  0  0
 16 26  1  0  0  0  0
 19 26  1  0  0  0  0
M  END
$$$$
