
  Mrv2102 08282507002D          

 23 24  0  0  1  0            999 V2000
   -3.6716    5.3482    0.0000 C   0  0  0  0  0  0  0  0  0  0  0  0
   -2.9571    5.7607    0.0000 C   0  0  0  0  0  0  0  0  0  0  0  0
   -2.2427    5.3482    0.0000 C   0  0  0  0  0  0  0  0  0  0  0  0
   -1.5282    5.7607    0.0000 C   0  0  0  0  0  0  0  0  0  0  0  0
   -0.8138    5.3482    0.0000 C   0  0  0  0  0  0  0  0  0  0  0  0
   -0.0993    5.7607    0.0000 C   0  0  0  0  0  0  0  0  0  0  0  0
    0.6152    5.3482    0.0000 C   0  0  0  0  0  0  0  0  0  0  0  0
    1.3297    5.7607    0.0000 C   0  0  0  0  0  0  0  0  0  0  0  0
    1.3297    6.5857    0.0000 O   0  0  0  0  0  0  0  0  0  0  0  0
    2.0441    5.3482    0.0000 C   0  0  0  0  0  0  0  0  0  0  0  0
    2.8751    5.8280    0.0000 C   0  0  0  0  0  0  0  0  0  0  0  0
    3.5438    4.9594    0.0000 C   0  0  2  0  0  0  0  0  0  0  0  0
    3.2853    4.0397    0.0000 C   0  0  2  0  0  0  0  0  0  0  0  0
    4.1005    4.1665    0.0000 O   0  0  0  0  0  0  0  0  0  0  0  0
    4.5096    4.8829    0.0000 C   0  0  0  0  0  0  0  0  0  0  0  0
    5.3616    4.8290    0.0000 O   0  0  0  0  0  0  0  0  0  0  0  0
    4.2046    5.6494    0.0000 C   0  0  2  0  0  0  0  0  0  0  0  0
    4.8241    6.2541    0.0000 O   0  0  0  0  0  0  0  0  0  0  0  0
    3.4151    5.8888    0.0000 C   0  0  0  0  0  0  0  0  0  0  0  0
    3.5386    6.7704    0.0000 O   0  0  0  0  0  0  0  0  0  0  0  0
    2.7357    5.4209    0.0000 N   0  0  0  0  0  0  0  0  0  0  0  0
    2.6779    4.5979    0.0000 C   0  0  2  0  0  0  0  0  0  0  0  0
    1.9893    4.0724    0.0000 C   0  0  0  0  0  0  0  0  0  0  0  0
  1  2  1  0  0  0  0
  2  3  1  0  0  0  0
  3  4  1  0  0  0  0
  4  5  1  0  0  0  0
  5  6  1  0  0  0  0
  6  7  1  0  0  0  0
  7  8  1  0  0  0  0
  8  9  1  0  0  0  0
  8 10  1  0  0  0  0
 10 11  2  0  0  0  0
 12 11  1  1  0  0  0
 12 13  1  0  0  0  0
 13 14  1  6  0  0  0
 14 15  1  0  0  0  0
 15 16  2  0  0  0  0
 17 15  1  0  0  0  0
 12 17  1  0  0  0  0
 17 18  1  1  0  0  0
 17 19  1  0  0  0  0
 19 20  2  0  0  0  0
 19 21  1  0  0  0  0
 22 21  1  0  0  0  0
 13 22  1  0  0  0  0
 22 23  1  1  0  0  0
M  END
$$$$
