
  Mrv2102 08282506542D          

 22 23  0  0  0  0            999 V2000
    0.2363    3.9493    0.0000 C   0  0  0  0  0  0  0  0  0  0  0  0
   -0.4782    3.5368    0.0000 C   0  0  0  0  0  0  0  0  0  0  0  0
   -0.4782    2.7118    0.0000 O   0  0  0  0  0  0  0  0  0  0  0  0
   -1.1926    2.2993    0.0000 C   0  0  0  0  0  0  0  0  0  0  0  0
   -1.9071    2.7118    0.0000 O   0  0  0  0  0  0  0  0  0  0  0  0
   -1.1926    1.4743    0.0000 C   0  0  0  0  0  0  0  0  0  0  0  0
   -0.4782    1.0618    0.0000 C   0  0  0  0  0  0  0  0  0  0  0  0
   -0.4782    0.2368    0.0000 C   0  0  0  0  0  0  0  0  0  0  0  0
   -1.1926   -0.1757    0.0000 C   0  0  0  0  0  0  0  0  0  0  0  0
   -1.9071    0.2368    0.0000 C   0  0  0  0  0  0  0  0  0  0  0  0
   -1.9071    1.0618    0.0000 N   0  0  0  0  0  0  0  0  0  0  0  0
   -2.6216    1.4743    0.0000 C   0  0  0  0  0  0  0  0  0  0  0  0
   -2.6216    2.2993    0.0000 O   0  0  0  0  0  0  0  0  0  0  0  0
   -3.3361    1.0618    0.0000 C   0  0  0  0  0  0  0  0  0  0  0  0
   -4.0505    1.4743    0.0000 O   0  0  0  0  0  0  0  0  0  0  0  0
   -3.3361    0.2368    0.0000 C   0  0  0  0  0  0  0  0  0  0  0  0
   -4.1485    0.3800    0.0000 O   0  0  0  0  0  0  0  0  0  0  0  0
   -2.5236    0.3800    0.0000 C   0  0  0  0  0  0  0  0  0  0  0  0
   -1.9933   -0.2519    0.0000 C   0  0  0  0  0  0  0  0  0  0  0  0
   -2.2754   -1.0272    0.0000 C   0  0  0  0  0  0  0  0  0  0  0  0
   -3.0879   -1.1705    0.0000 C   0  0  0  0  0  0  0  0  0  0  0  0
   -3.6182   -0.5385    0.0000 C   0  0  0  0  0  0  0  0  0  0  0  0
  1  2  1  0  0  0  0
  2  3  1  0  0  0  0
  3  4  1  0  0  0  0
  4  5  2  0  0  0  0
  4  6  1  0  0  0  0
  6  7  1  0  0  0  0
  7  8  1  0  0  0  0
  8  9  1  0  0  0  0
  9 10  1  0  0  0  0
 10 11  1  0  0  0  0
  6 11  1  0  0  0  0
 11 12  1  0  0  0  0
 12 13  2  0  0  0  0
 12 14  1  0  0  0  0
 14 15  2  0  0  0  0
 14 16  1  0  0  0  0
 16 17  1  0  0  0  0
 16 18  1  0  0  0  0
 18 19  1  0  0  0  0
 19 20  1  0  0  0  0
 20 21  1  0  0  0  0
 21 22  1  0  0  0  0
 16 22  1  0  0  0  0
M  END
$$$$
