
  Mrv2102 08282508002D          

 21 23  0  0  1  0            999 V2000
    0.7596   -2.4916    0.0000 C   0  0  0  0  0  0  0  0  0  0  0  0
    1.0146   -1.7070    0.0000 C   0  0  0  0  0  0  0  0  0  0  0  0
    1.7993   -1.9619    0.0000 C   0  0  0  0  0  0  0  0  0  0  0  0
    0.2300   -1.4521    0.0000 C   0  0  0  0  0  0  0  0  0  0  0  0
    1.2695   -0.9224    0.0000 C   0  0  1  0  0  0  0  0  0  0  0  0
    0.7846   -0.2549    0.0000 O   0  0  0  0  0  0  0  0  0  0  0  0
    1.2695    0.4125    0.0000 C   0  0  0  0  0  0  0  0  0  0  0  0
    1.0146    1.1971    0.0000 O   0  0  0  0  0  0  0  0  0  0  0  0
    2.0541    0.1576    0.0000 C   0  0  1  0  0  0  0  0  0  0  0  0
    2.8388    0.4125    0.0000 C   0  0  0  0  0  0  0  0  0  0  0  0
    3.3237   -0.2549    0.0000 C   0  0  0  0  0  0  0  0  0  0  0  0
    2.8388   -0.9224    0.0000 C   0  0  0  0  0  0  0  0  0  0  0  0
    3.0938   -1.7070    0.0000 O   0  0  0  0  0  0  0  0  0  0  0  0
    2.0541   -0.6674    0.0000 N   0  0  0  0  0  0  0  0  0  0  0  0
    2.0541    0.9826    0.0000 C   0  0  0  0  0  0  0  0  0  0  0  0
    1.3127    1.3442    0.0000 O   0  0  0  0  0  0  0  0  0  0  0  0
    2.8666    0.8393    0.0000 C   0  0  0  0  0  0  0  0  0  0  0  0
    3.3969    1.4713    0.0000 C   0  0  0  0  0  0  0  0  0  0  0  0
    3.1147    2.2465    0.0000 C   0  0  0  0  0  0  0  0  0  0  0  0
    2.3023    2.3898    0.0000 C   0  0  0  0  0  0  0  0  0  0  0  0
    1.7720    1.7578    0.0000 C   0  0  0  0  0  0  0  0  0  0  0  0
  1  2  1  0  0  0  0
  2  3  1  0  0  0  0
  2  4  1  0  0  0  0
  5  2  1  1  0  0  0
  5  6  1  0  0  0  0
  6  7  1  0  0  0  0
  7  8  2  0  0  0  0
  9  7  1  0  0  0  0
  9 10  1  0  0  0  0
 10 11  1  0  0  0  0
 11 12  1  0  0  0  0
 12 13  2  0  0  0  0
 12 14  1  0  0  0  0
  5 14  1  0  0  0  0
  9 14  1  0  0  0  0
  9 15  1  6  0  0  0
 15 16  1  0  0  0  0
 15 17  1  0  0  0  0
 17 18  1  0  0  0  0
 18 19  1  0  0  0  0
 19 20  1  0  0  0  0
 20 21  1  0  0  0  0
 15 21  1  0  0  0  0
M  END
$$$$
