
  Mrv2102 08282507552D          

 25 28  0  0  1  0            999 V2000
    4.5526    2.6008    0.0000 C   0  0  0  0  0  0  0  0  0  0  0  0
    3.9755    2.0112    0.0000 C   0  0  2  0  0  0  0  0  0  0  0  0
    4.1134    1.1977    0.0000 C   0  0  1  0  0  0  0  0  0  0  0  0
    4.8706    0.8702    0.0000 O   0  0  0  0  0  0  0  0  0  0  0  0
    3.3981    0.7226    0.0000 C   0  0  2  0  0  0  0  0  0  0  0  0
    4.0447    0.2102    0.0000 C   0  0  0  0  0  0  0  0  0  0  0  0
    3.1107   -0.0507    0.0000 C   0  0  0  0  0  0  0  0  0  0  0  0
    2.2974   -0.1886    0.0000 C   0  0  0  0  0  0  0  0  0  0  0  0
    2.0100   -0.9619    0.0000 O   0  0  0  0  0  0  0  0  0  0  0  0
    1.7713    0.4469    0.0000 O   0  0  0  0  0  0  0  0  0  0  0  0
    0.9579    0.3091    0.0000 C   0  0  2  0  0  0  0  0  0  0  0  0
    0.3808   -0.2805    0.0000 C   0  0  0  0  0  0  0  0  0  0  0  0
   -0.3582    0.0861    0.0000 C   0  0  0  0  0  0  0  0  0  0  0  0
   -0.2380    0.9023    0.0000 N   0  0  0  0  0  0  0  0  0  0  0  0
   -0.6204    1.6333    0.0000 C   0  0  0  0  0  0  0  0  0  0  0  0
   -0.0434    2.2229    0.0000 C   0  0  0  0  0  0  0  0  0  0  0  0
    0.7191    1.7180    0.0000 C   0  0  0  0  0  0  0  0  0  0  0  0
    1.5326    1.8558    0.0000 C   0  0  0  0  0  0  0  0  0  0  0  0
    1.8199    2.6291    0.0000 O   0  0  0  0  0  0  0  0  0  0  0  0
    2.6333    2.7670    0.0000 C   0  0  0  0  0  0  0  0  0  0  0  0
    2.9207    3.5403    0.0000 O   0  0  0  0  0  0  0  0  0  0  0  0
    3.1594    2.1314    0.0000 C   0  0  2  0  0  0  0  0  0  0  0  0
    3.5642    2.8503    0.0000 C   0  0  0  0  0  0  0  0  0  0  0  0
    2.8720    1.3581    0.0000 O   0  0  0  0  0  0  0  0  0  0  0  0
    0.4318    0.9446    0.0000 C   0  0  2  0  0  0  0  0  0  0  0  0
  2  1  1  6  0  0  0
  2  3  1  0  0  0  0
  3  4  1  1  0  0  0
  3  5  1  0  0  0  0
  5  6  1  1  0  0  0
  5  7  1  0  0  0  0
  7  8  1  0  0  0  0
  8  9  2  0  0  0  0
  8 10  1  0  0  0  0
 11 10  1  0  0  0  0
 11 12  1  6  0  0  0
 12 13  1  0  0  0  0
 13 14  1  0  0  0  0
 14 15  1  0  0  0  0
 15 16  1  0  0  0  0
 16 17  2  0  0  0  0
 17 18  1  0  0  0  0
 18 19  1  0  0  0  0
 19 20  1  0  0  0  0
 20 21  2  0  0  0  0
 22 20  1  0  0  0  0
  2 22  1  0  0  0  0
 22 23  1  1  0  0  0
 22 24  1  0  0  0  0
  5 24  1  0  0  0  0
 25 17  1  0  0  0  0
 11 25  1  0  0  0  0
 25 14  1  6  0  0  0
M  END
$$$$
