
  Mrv2102 08282507572D          

 36 38  0  0  1  0            999 V2000
    5.5336    1.8827    0.0000 C   0  0  0  0  0  0  0  0  0  0  0  0
    4.8191    1.4702    0.0000 O   0  0  0  0  0  0  0  0  0  0  0  0
    4.8191    0.6452    0.0000 C   0  0  1  0  0  0  0  0  0  0  0  0
    5.5336    0.2327    0.0000 C   0  0  0  0  0  0  0  0  0  0  0  0
    6.2480    0.6452    0.0000 C   0  0  0  0  0  0  0  0  0  0  0  0
    6.9625    0.2327    0.0000 C   0  0  0  0  0  0  0  0  0  0  0  0
    6.2480    1.4702    0.0000 C   0  0  0  0  0  0  0  0  0  0  0  0
    4.1046    0.2327    0.0000 C   0  0  2  0  0  0  0  0  0  0  0  0
    3.3902    0.6452    0.0000 C   0  0  0  0  0  0  0  0  0  0  0  0
    2.6757    0.2327    0.0000 C   0  0  0  0  0  0  0  0  0  0  0  0
    2.6757   -0.5923    0.0000 C   0  0  1  0  0  0  0  0  0  0  0  0
    1.9613   -1.0048    0.0000 C   0  0  0  0  0  0  0  0  0  0  0  0
    3.3902   -1.0048    0.0000 C   0  0  1  0  0  0  0  0  0  0  0  0
    2.8599   -1.6368    0.0000 O   0  0  0  0  0  0  0  0  0  0  0  0
    4.1046   -0.5923    0.0000 C   0  0  0  0  0  0  0  0  0  0  0  0
    3.9205   -1.6368    0.0000 C   0  0  0  0  0  0  0  0  0  0  0  0
    4.6336   -1.5546    0.0000 O   0  0  0  0  0  0  0  0  0  0  0  0
    3.6745   -2.3126    0.0000 C   0  0  0  0  0  0  0  0  0  0  0  0
    2.9927   -3.3934    0.0000 O   0  0  0  0  0  0  0  0  0  0  0  0
    4.6603   -2.8022    0.0000 N   0  0  0  0  0  0  0  0  0  0  0  0
    4.8958   -3.5928    0.0000 C   0  0  2  0  0  0  0  0  0  0  0  0
    5.6983   -3.7842    0.0000 C   0  0  0  0  0  0  0  0  0  0  0  0
    6.2653   -3.1849    0.0000 C   0  0  0  0  0  0  0  0  0  0  0  0
    6.0298   -2.3942    0.0000 C   0  0  0  0  0  0  0  0  0  0  0  0
    5.2273   -2.2029    0.0000 C   0  0  1  0  0  0  0  0  0  0  0  0
    4.9918   -1.4122    0.0000 C   0  0  0  0  0  0  0  0  0  0  0  0
    5.5588   -0.8129    0.0000 O   0  0  0  0  0  0  0  0  0  0  0  0
    4.1893   -1.2208    0.0000 O   0  0  0  0  0  0  0  0  0  0  0  0
    3.6223   -1.8201    0.0000 C   0  0  0  0  0  0  0  0  0  0  0  0
    3.8578   -2.6107    0.0000 C   0  0  0  0  0  0  0  0  0  0  0  0
    3.0553   -2.4194    0.0000 C   0  0  0  0  0  0  0  0  0  0  0  0
    2.4883   -3.0187    0.0000 O   0  0  0  0  0  0  0  0  0  0  0  0
    3.2908   -3.2101    0.0000 C   0  0  0  0  0  0  0  0  0  0  0  0
    3.5263   -4.0007    0.0000 O   0  0  0  0  0  0  0  0  0  0  0  0
    4.3288   -4.1921    0.0000 C   0  0  0  0  0  0  0  0  0  0  0  0
    4.5643   -4.9828    0.0000 O   0  0  0  0  0  0  0  0  0  0  0  0
  1  2  1  0  0  0  0
  3  2  1  1  0  0  0
  3  4  1  0  0  0  0
  4  5  1  0  0  0  0
  5  6  1  0  0  0  0
  5  7  1  0  0  0  0
  3  8  1  0  0  0  0
  8  9  1  1  0  0  0
  9 10  1  0  0  0  0
 11 10  1  0  0  0  0
 11 12  1  6  0  0  0
 11 13  1  0  0  0  0
 13 14  1  6  0  0  0
 13 15  1  0  0  0  0
  8 15  1  0  0  0  0
 13 16  1  1  0  0  0
 16 17  2  0  0  0  0
 16 18  1  0  0  0  0
 18 19  2  0  0  0  0
 18 20  1  0  0  0  0
 21 20  1  6  0  0  0
 21 22  1  0  0  0  0
 22 23  1  0  0  0  0
 23 24  1  0  0  0  0
 25 24  1  0  0  0  0
 25 20  1  6  0  0  0
 25 26  1  0  0  0  0
 26 27  2  0  0  0  0
 26 28  1  0  0  0  0
 28 29  1  0  0  0  0
 29 30  1  0  0  0  0
 30 31  1  0  0  0  0
 31 32  1  0  0  0  0
 30 33  1  0  0  0  0
 33 34  1  0  0  0  0
 34 35  1  0  0  0  0
 21 35  1  0  0  0  0
 35 36  2  0  0  0  0
M  END
$$$$
