
  Mrv2102 08282508002D          

 25 28  0  0  1  0            999 V2000
    0.6546    4.9851    0.0000 C   0  0  0  0  0  0  0  0  0  0  0  0
    1.0050    4.2382    0.0000 C   0  0  0  0  0  0  0  0  0  0  0  0
    1.8271    4.1682    0.0000 C   0  0  0  0  0  0  0  0  0  0  0  0
    2.1775    3.4213    0.0000 C   0  0  0  0  0  0  0  0  0  0  0  0
    1.7058    2.7444    0.0000 C   0  0  0  0  0  0  0  0  0  0  0  0
    2.0562    1.9975    0.0000 C   0  0  1  0  0  0  0  0  0  0  0  0
    2.8031    2.3479    0.0000 C   0  0  0  0  0  0  0  0  0  0  0  0
    2.4066    1.2506    0.0000 O   0  0  0  0  0  0  0  0  0  0  0  0
    1.5846    1.3206    0.0000 C   0  0  2  0  0  0  0  0  0  0  0  0
    0.7625    1.3907    0.0000 C   0  0  1  0  0  0  0  0  0  0  0  0
    0.1605    0.8266    0.0000 O   0  0  0  0  0  0  0  0  0  0  0  0
   -0.5620    1.2249    0.0000 C   0  0  0  0  0  0  0  0  0  0  0  0
   -1.3089    0.8745    0.0000 O   0  0  0  0  0  0  0  0  0  0  0  0
   -0.4064    2.0351    0.0000 C   0  0  1  0  0  0  0  0  0  0  0  0
   -0.9705    2.6372    0.0000 C   0  0  0  0  0  0  0  0  0  0  0  0
   -1.7739    2.4497    0.0000 N   0  0  0  0  0  0  0  0  0  0  0  0
   -2.0133    1.6602    0.0000 C   0  0  0  0  0  0  0  0  0  0  0  0
   -2.8167    1.4727    0.0000 C   0  0  0  0  0  0  0  0  0  0  0  0
   -3.3808    2.0748    0.0000 O   0  0  0  0  0  0  0  0  0  0  0  0
   -3.1414    2.8643    0.0000 C   0  0  0  0  0  0  0  0  0  0  0  0
   -2.3380    3.0518    0.0000 C   0  0  0  0  0  0  0  0  0  0  0  0
    0.4122    2.1376    0.0000 C   0  0  2  0  0  0  0  0  0  0  0  0
    0.8838    2.8144    0.0000 C   0  0  0  0  0  0  0  0  0  0  0  0
    0.5334    3.5613    0.0000 C   0  0  1  0  0  0  0  0  0  0  0  0
   -0.2886    3.6313    0.0000 O   0  0  0  0  0  0  0  0  0  0  0  0
  1  2  1  0  0  0  0
  2  3  2  0  0  0  0
  3  4  1  0  0  0  0
  4  5  1  0  0  0  0
  6  5  1  0  0  0  0
  6  7  1  6  0  0  0
  6  8  1  0  0  0  0
  9  8  1  6  0  0  0
  9  6  1  0  0  0  0
  9 10  1  0  0  0  0
 10 11  1  1  0  0  0
 11 12  1  0  0  0  0
 12 13  2  0  0  0  0
 14 12  1  0  0  0  0
 14 15  1  1  0  0  0
 15 16  1  0  0  0  0
 16 17  1  0  0  0  0
 17 18  1  0  0  0  0
 18 19  1  0  0  0  0
 19 20  1  0  0  0  0
 20 21  1  0  0  0  0
 16 21  1  0  0  0  0
 22 14  1  0  0  0  0
 10 22  1  0  0  0  0
 22 23  1  6  0  0  0
 24 23  1  0  0  0  0
 24  2  1  0  0  0  0
 24 25  1  1  0  0  0
M  END
$$$$
