
  Mrv2102 08282508002D          

 24 28  0  0  1  0            999 V2000
    3.3684   -2.8703    0.0000 O   0  0  0  0  0  0  0  0  0  0  0  0
    3.0839   -2.0959    0.0000 C   0  0  2  0  0  0  0  0  0  0  0  0
    2.2711   -1.9551    0.0000 C   0  0  2  0  0  0  0  0  0  0  0  0
    1.4582   -1.8142    0.0000 O   0  0  0  0  0  0  0  0  0  0  0  0
    1.9865   -1.1807    0.0000 C   0  0  2  0  0  0  0  0  0  0  0  0
    2.5150   -0.5471    0.0000 C   0  0  0  0  0  0  0  0  0  0  0  0
    2.2304    0.2273    0.0000 O   0  0  0  0  0  0  0  0  0  0  0  0
    3.3279   -0.6879    0.0000 C   0  0  0  0  0  0  0  0  0  0  0  0
    3.8562   -0.0544    0.0000 C   0  0  0  0  0  0  0  0  0  0  0  0
    4.6691   -0.1952    0.0000 C   0  0  0  0  0  0  0  0  0  0  0  0
    4.9536   -0.9696    0.0000 C   0  0  2  0  0  0  0  0  0  0  0  0
    4.4252   -1.6031    0.0000 C   0  0  1  0  0  0  0  0  0  0  0  0
    3.6123   -1.4623    0.0000 C   0  0  2  0  0  0  0  0  0  0  0  0
    4.8645   -2.3015    0.0000 C   0  0  0  0  0  0  0  0  0  0  0  0
    4.5577   -3.0673    0.0000 O   0  0  0  0  0  0  0  0  0  0  0  0
    5.6644   -2.0995    0.0000 N   0  0  0  0  0  0  0  0  0  0  0  0
    6.2980   -2.6279    0.0000 C   0  0  0  0  0  0  0  0  0  0  0  0
    6.1572   -3.4408    0.0000 C   0  0  2  0  0  0  0  0  0  0  0  0
    6.7321   -4.0325    0.0000 C   0  0  0  0  0  0  0  0  0  0  0  0
    6.3469   -4.7621    0.0000 C   0  0  0  0  0  0  0  0  0  0  0  0
    5.5340   -4.6213    0.0000 C   0  0  0  0  0  0  0  0  0  0  0  0
    5.4168   -3.8046    0.0000 O   0  0  0  0  0  0  0  0  0  0  0  0
    5.7195   -1.2763    0.0000 C   0  0  0  0  0  0  0  0  0  0  0  0
    6.4178   -0.8371    0.0000 O   0  0  0  0  0  0  0  0  0  0  0  0
  2  1  1  6  0  0  0
  2  3  1  0  0  0  0
  3  4  1  6  0  0  0
  5  4  1  6  0  0  0
  3  5  1  0  0  0  0
  5  6  1  0  0  0  0
  6  7  2  0  0  0  0
  6  8  1  0  0  0  0
  8  9  2  0  0  0  0
  9 10  1  0  0  0  0
 11 10  1  0  0  0  0
 12 11  1  0  0  0  0
 13 12  1  0  0  0  0
  2 13  1  0  0  0  0
 13  8  1  6  0  0  0
 12 14  1  6  0  0  0
 14 15  2  0  0  0  0
 14 16  1  0  0  0  0
 16 17  1  0  0  0  0
 18 17  1  6  0  0  0
 18 19  1  0  0  0  0
 19 20  1  0  0  0  0
 20 21  1  0  0  0  0
 21 22  1  0  0  0  0
 18 22  1  0  0  0  0
 16 23  1  0  0  0  0
 11 23  1  1  0  0  0
 23 24  2  0  0  0  0
M  END
$$$$
