
  Mrv2102 08282508032D          

 24 26  0  0  1  0            999 V2000
    7.1911    1.7417    0.0000 C   0  0  0  0  0  0  0  0  0  0  0  0
    6.4026    1.4990    0.0000 C   0  0  2  0  0  0  0  0  0  0  0  0
    6.2184    0.6948    0.0000 C   0  0  1  0  0  0  0  0  0  0  0  0
    5.4299    0.4523    0.0000 C   0  0  0  0  0  0  0  0  0  0  0  0
    6.8228    0.1333    0.0000 C   0  0  1  0  0  0  0  0  0  0  0  0
    7.2709    0.8260    0.0000 C   0  0  0  0  0  0  0  0  0  0  0  0
    7.5828   -0.1877    0.0000 O   0  0  0  0  0  0  0  0  0  0  0  0
    6.6386   -0.6709    0.0000 C   0  0  0  0  0  0  0  0  0  0  0  0
    7.2430   -1.2325    0.0000 O   0  0  0  0  0  0  0  0  0  0  0  0
    5.8501   -0.9135    0.0000 O   0  0  0  0  0  0  0  0  0  0  0  0
    5.2458   -0.3520    0.0000 C   0  0  0  0  0  0  0  0  0  0  0  0
    4.4573   -0.5946    0.0000 C   0  0  0  0  0  0  0  0  0  0  0  0
    3.9619   -1.2543    0.0000 C   0  0  0  0  0  0  0  0  0  0  0  0
    3.1814   -0.9871    0.0000 C   0  0  0  0  0  0  0  0  0  0  0  0
    3.1943   -0.1622    0.0000 N   0  0  0  0  0  0  0  0  0  0  0  0
    2.7199    0.5127    0.0000 C   0  0  0  0  0  0  0  0  0  0  0  0
    3.2153    1.1725    0.0000 C   0  0  0  0  0  0  0  0  0  0  0  0
    4.0370    0.7712    0.0000 C   0  0  1  0  0  0  0  0  0  0  0  0
    4.8256    1.0138    0.0000 O   0  0  0  0  0  0  0  0  0  0  0  0
    5.0097    1.8180    0.0000 C   0  0  0  0  0  0  0  0  0  0  0  0
    4.4053    2.3795    0.0000 O   0  0  0  0  0  0  0  0  0  0  0  0
    5.7982    2.0606    0.0000 C   0  0  0  0  0  0  0  0  0  0  0  0
    5.9824    2.8648    0.0000 C   0  0  0  0  0  0  0  0  0  0  0  0
    3.8529   -0.0330    0.0000 C   0  0  1  0  0  0  0  0  0  0  0  0
  2  1  1  6  0  0  0
  3  2  1  0  0  0  0
  3  4  1  6  0  0  0
  3  5  1  0  0  0  0
  5  6  1  6  0  0  0
  5  7  1  1  0  0  0
  5  8  1  0  0  0  0
  8  9  2  0  0  0  0
  8 10  1  0  0  0  0
 10 11  1  0  0  0  0
 11 12  1  0  0  0  0
 12 13  2  0  0  0  0
 13 14  1  0  0  0  0
 14 15  1  0  0  0  0
 15 16  1  0  0  0  0
 16 17  1  0  0  0  0
 18 17  1  1  0  0  0
 18 19  1  0  0  0  0
 19 20  1  0  0  0  0
 20 21  2  0  0  0  0
 20 22  1  0  0  0  0
  2 22  1  0  0  0  0
 22 23  2  0  0  0  0
 18 24  1  0  0  0  0
 24 12  1  0  0  0  0
 24 15  1  1  0  0  0
M  END
$$$$
