
  Mrv2102 08282508012D          

 28 34  0  0  1  0            999 V2000
   -1.7445   -0.8373    0.0000 C   0  0  0  0  0  0  0  0  0  0  0  0
   -0.9506   -0.6129    0.0000 C   0  0  0  0  0  0  0  0  0  0  0  0
   -0.7480    0.1868    0.0000 C   0  0  0  0  0  0  0  0  0  0  0  0
   -0.3594   -1.1883    0.0000 C   0  0  2  0  0  0  0  0  0  0  0  0
   -0.9347   -1.7795    0.0000 O   0  0  0  0  0  0  0  0  0  0  0  0
   -0.1349   -1.9822    0.0000 C   0  0  1  0  0  0  0  0  0  0  0  0
    0.6648   -2.1848    0.0000 C   0  0  2  0  0  0  0  0  0  0  0  0
    1.4645   -2.3874    0.0000 O   0  0  0  0  0  0  0  0  0  0  0  0
    1.2401   -1.5935    0.0000 C   0  0  2  0  0  0  0  0  0  0  0  0
    1.0157   -0.7996    0.0000 C   0  0  1  0  0  0  0  0  0  0  0  0
    0.7914   -0.0057    0.0000 O   0  0  0  0  0  0  0  0  0  0  0  0
    1.5911   -0.2083    0.0000 C   0  0  1  0  0  0  0  0  0  0  0  0
    2.3908   -0.4109    0.0000 C   0  0  0  0  0  0  0  0  0  0  0  0
    2.6152   -1.2049    0.0000 C   0  0  1  0  0  0  0  0  0  0  0  0
    3.4149   -1.4075    0.0000 C   0  0  0  0  0  0  0  0  0  0  0  0
    3.6393   -2.2014    0.0000 C   0  0  0  0  0  0  0  0  0  0  0  0
    3.0640   -2.7926    0.0000 C   0  0  0  0  0  0  0  0  0  0  0  0
    2.2643   -2.5900    0.0000 C   0  0  0  0  0  0  0  0  0  0  0  0
    2.0398   -1.7961    0.0000 C   0  0  2  0  0  0  0  0  0  0  0  0
    1.9219   -2.6127    0.0000 C   0  0  0  0  0  0  0  0  0  0  0  0
    4.4637   -2.2333    0.0000 C   0  0  0  0  0  0  0  0  0  0  0  0
    4.9225   -2.9190    0.0000 O   0  0  0  0  0  0  0  0  0  0  0  0
    4.7488   -1.4591    0.0000 O   0  0  0  0  0  0  0  0  0  0  0  0
    4.1006   -0.9487    0.0000 C   0  0  0  0  0  0  0  0  0  0  0  0
    0.2160   -0.5970    0.0000 C   0  0  2  0  0  0  0  0  0  0  0  0
   -0.0084    0.1969    0.0000 N   0  0  0  0  0  0  0  0  0  0  0  0
    0.5669    0.7882    0.0000 C   0  0  0  0  0  0  0  0  0  0  0  0
    1.3667    0.5855    0.0000 O   0  0  0  0  0  0  0  0  0  0  0  0
  1  2  1  0  0  0  0
  2  3  1  0  0  0  0
  4  2  1  1  0  0  0
  4  5  1  0  0  0  0
  6  5  1  6  0  0  0
  6  4  1  0  0  0  0
  7  6  1  0  0  0  0
  7  8  1  1  0  0  0
  9  8  1  1  0  0  0
  9  7  1  0  0  0  0
  9 10  1  0  0  0  0
 10 11  1  1  0  0  0
 12 11  1  1  0  0  0
 10 12  1  0  0  0  0
 12 13  1  0  0  0  0
 14 13  1  0  0  0  0
 14 15  1  1  0  0  0
 15 16  2  0  0  0  0
 16 17  1  0  0  0  0
 17 18  1  0  0  0  0
 19 18  1  0  0  0  0
  9 19  1  0  0  0  0
 19 14  1  0  0  0  0
 19 20  1  1  0  0  0
 16 21  1  0  0  0  0
 21 22  2  0  0  0  0
 21 23  1  0  0  0  0
 23 24  1  0  0  0  0
 15 24  1  0  0  0  0
 10 25  1  0  0  0  0
 25  4  1  0  0  0  0
 25 26  1  1  0  0  0
 26 27  1  0  0  0  0
 27 28  2  0  0  0  0
M  END
$$$$
