
  Mrv2102 08282508082D          

 25 28  0  0  1  0            999 V2000
   -5.9985   -2.6665    0.0000 C   0  0  0  0  0  0  0  0  0  0  0  0
   -5.2840   -2.2540    0.0000 C   0  0  0  0  0  0  0  0  0  0  0  0
   -4.5695   -2.6665    0.0000 O   0  0  0  0  0  0  0  0  0  0  0  0
   -3.8551   -2.2540    0.0000 C   0  0  0  0  0  0  0  0  0  0  0  0
   -3.8551   -1.4290    0.0000 O   0  0  0  0  0  0  0  0  0  0  0  0
   -3.1406   -2.6665    0.0000 C   0  0  0  0  0  0  0  0  0  0  0  0
   -2.4261   -2.2540    0.0000 C   0  0  0  0  0  0  0  0  0  0  0  0
   -1.7117   -2.6665    0.0000 N   0  0  0  0  0  0  0  0  0  0  0  0
   -1.6254   -3.4869    0.0000 C   0  0  0  0  0  0  0  0  0  0  0  0
   -2.2385   -4.0390    0.0000 O   0  0  0  0  0  0  0  0  0  0  0  0
   -0.8185   -3.6584    0.0000 C   0  0  2  0  0  0  0  0  0  0  0  0
   -0.4060   -4.3729    0.0000 C   0  0  0  0  0  0  0  0  0  0  0  0
    0.4190   -4.3729    0.0000 C   0  0  0  0  0  0  0  0  0  0  0  0
    0.8315   -3.6584    0.0000 C   0  0  0  0  0  0  0  0  0  0  0  0
    0.4190   -2.9440    0.0000 C   0  0  2  0  0  0  0  0  0  0  0  0
   -0.4060   -2.9440    0.0000 C   0  0  1  0  0  0  0  0  0  0  0  0
   -0.9580   -2.3309    0.0000 C   0  0  0  0  0  0  0  0  0  0  0  0
   -0.7865   -1.5239    0.0000 O   0  0  0  0  0  0  0  0  0  0  0  0
    0.8315   -2.2295    0.0000 C   0  0  2  0  0  0  0  0  0  0  0  0
    0.4190   -1.5151    0.0000 O   0  0  0  0  0  0  0  0  0  0  0  0
    1.6565   -2.2295    0.0000 C   0  0  2  0  0  0  0  0  0  0  0  0
    2.4815   -2.2295    0.0000 O   0  0  0  0  0  0  0  0  0  0  0  0
    2.0690   -2.9440    0.0000 C   0  0  2  0  0  0  0  0  0  0  0  0
    1.6565   -3.6584    0.0000 C   0  0  0  0  0  0  0  0  0  0  0  0
    2.0690   -4.3729    0.0000 O   0  0  0  0  0  0  0  0  0  0  0  0
  1  2  1  0  0  0  0
  2  3  1  0  0  0  0
  3  4  1  0  0  0  0
  4  5  2  0  0  0  0
  4  6  1  0  0  0  0
  6  7  1  0  0  0  0
  7  8  1  0  0  0  0
  8  9  1  0  0  0  0
  9 10  2  0  0  0  0
 11  9  1  1  0  0  0
 11 12  1  0  0  0  0
 12 13  1  0  0  0  0
 13 14  2  0  0  0  0
 15 14  1  6  0  0  0
 15 16  1  0  0  0  0
 16 11  1  0  0  0  0
 16 17  1  6  0  0  0
  8 17  1  0  0  0  0
 17 18  2  0  0  0  0
 15 19  1  0  0  0  0
 19 20  1  6  0  0  0
 19 21  1  0  0  0  0
 21 22  1  6  0  0  0
 23 22  1  6  0  0  0
 21 23  1  0  0  0  0
 23 24  1  0  0  0  0
 14 24  1  0  0  0  0
 24 25  2  0  0  0  0
M  END
$$$$
