
  Mrv2102 08282508072D          

 30 34  0  0  1  0            999 V2000
    5.9501    1.0570    0.0000 C   0  0  0  0  0  0  0  0  0  0  0  0
    5.2277    1.4554    0.0000 C   0  0  0  0  0  0  0  0  0  0  0  0
    5.2116    2.2803    0.0000 C   0  0  0  0  0  0  0  0  0  0  0  0
    4.5214    1.0291    0.0000 C   0  0  0  0  0  0  0  0  0  0  0  0
    3.7990    1.4276    0.0000 C   0  0  2  0  0  0  0  0  0  0  0  0
    3.6991    2.2437    0.0000 N   0  0  0  0  0  0  0  0  0  0  0  0
    2.8836    2.3405    0.0000 C   0  0  0  0  0  0  0  0  0  0  0  0
    2.5517    3.0958    0.0000 O   0  0  0  0  0  0  0  0  0  0  0  0
    2.3666    1.6233    0.0000 C   0  0  2  0  0  0  0  0  0  0  0  0
    3.0411    1.0702    0.0000 C   0  0  1  0  0  0  0  0  0  0  0  0
    3.0171    0.2303    0.0000 C   0  0  2  0  0  0  0  0  0  0  0  0
    3.7171   -0.2064    0.0000 C   0  0  0  0  0  0  0  0  0  0  0  0
    2.2883   -0.1528    0.0000 C   0  0  0  0  0  0  0  0  0  0  0  0
    2.2538   -0.9770    0.0000 C   0  0  0  0  0  0  0  0  0  0  0  0
    2.9504   -1.4191    0.0000 O   0  0  0  0  0  0  0  0  0  0  0  0
    1.5956    0.2887    0.0000 C   0  0  0  0  0  0  0  0  0  0  0  0
    1.6338    1.1293    0.0000 C   0  0  2  0  0  0  0  0  0  0  0  0
    0.8243    1.4706    0.0000 C   0  0  2  0  0  0  0  0  0  0  0  0
    0.6768    2.3426    0.0000 C   0  0  1  0  0  0  0  0  0  0  0  0
    0.9081    3.2148    0.0000 C   0  0  0  0  0  0  0  0  0  0  0  0
    1.7732    3.3059    0.0000 C   0  0  0  0  0  0  0  0  0  0  0  0
    2.1038    2.5048    0.0000 C   0  0  1  0  0  0  0  0  0  0  0  0
    2.3380    3.2958    0.0000 O   0  0  0  0  0  0  0  0  0  0  0  0
    1.3616    2.3795    0.0000 O   0  0  0  0  0  0  0  0  0  0  0  0
   -0.1431    2.5480    0.0000 C   0  0  0  0  0  0  0  0  0  0  0  0
   -0.7557    1.9897    0.0000 C   0  0  0  0  0  0  0  0  0  0  0  0
   -0.5849    1.1768    0.0000 C   0  0  0  0  0  0  0  0  0  0  0  0
    0.1995    0.9187    0.0000 C   0  0  2  0  0  0  0  0  0  0  0  0
   -0.0326    0.1270    0.0000 C   0  0  0  0  0  0  0  0  0  0  0  0
    0.7252    0.2829    0.0000 O   0  0  0  0  0  0  0  0  0  0  0  0
  1  2  1  0  0  0  0
  2  3  1  0  0  0  0
  2  4  1  0  0  0  0
  5  4  1  1  0  0  0
  5  6  1  0  0  0  0
  6  7  1  0  0  0  0
  7  8  2  0  0  0  0
  9  7  1  6  0  0  0
  9 10  1  0  0  0  0
 10  5  1  6  0  0  0
 10 11  1  0  0  0  0
 11 12  1  6  0  0  0
 11 13  1  0  0  0  0
 13 14  1  0  0  0  0
 14 15  1  0  0  0  0
 13 16  2  0  0  0  0
 17 16  1  6  0  0  0
  9 17  1  0  0  0  0
 17 18  1  0  0  0  0
 18 19  1  1  0  0  0
 19 20  1  0  0  0  0
 20 21  1  0  0  0  0
 22 21  1  0  0  0  0
  9 22  1  0  0  0  0
 22 23  1  6  0  0  0
 22 24  1  0  0  0  0
 19 24  1  6  0  0  0
 19 25  1  0  0  0  0
 25 26  1  0  0  0  0
 26 27  1  0  0  0  0
 28 27  1  0  0  0  0
 18 28  1  0  0  0  0
 28 29  1  1  0  0  0
 28 30  1  6  0  0  0
M  END
$$$$
