
  Mrv2102 08282508062D          

 26 28  0  0  1  0            999 V2000
    4.7720   -3.3727    0.0000 C   0  0  0  0  0  0  0  0  0  0  0  0
    4.1330   -2.8509    0.0000 C   0  0  1  0  0  0  0  0  0  0  0  0
    3.3616   -3.1433    0.0000 C   0  0  0  0  0  0  0  0  0  0  0  0
    3.2291   -3.9576    0.0000 O   0  0  0  0  0  0  0  0  0  0  0  0
    2.7226   -2.6215    0.0000 O   0  0  0  0  0  0  0  0  0  0  0  0
    1.9512   -2.9139    0.0000 C   0  0  2  0  0  0  0  0  0  0  0  0
    1.4990   -3.6039    0.0000 C   0  0  0  0  0  0  0  0  0  0  0  0
    0.7030   -3.3871    0.0000 C   0  0  0  0  0  0  0  0  0  0  0  0
    0.6632   -2.5630    0.0000 N   0  0  0  0  0  0  0  0  0  0  0  0
    0.1467   -1.9197    0.0000 C   0  0  0  0  0  0  0  0  0  0  0  0
    0.5989   -1.2297    0.0000 C   0  0  0  0  0  0  0  0  0  0  0  0
    1.4446   -1.5777    0.0000 C   0  0  0  0  0  0  0  0  0  0  0  0
    2.2741   -1.2214    0.0000 C   0  0  0  0  0  0  0  0  0  0  0  0
    2.6517   -0.4878    0.0000 O   0  0  0  0  0  0  0  0  0  0  0  0
    3.4660   -0.6203    0.0000 C   0  0  0  0  0  0  0  0  0  0  0  0
    4.0518   -0.0394    0.0000 O   0  0  0  0  0  0  0  0  0  0  0  0
    3.5916   -1.4357    0.0000 C   0  0  2  0  0  0  0  0  0  0  0  0
    4.4134   -1.3623    0.0000 C   0  0  0  0  0  0  0  0  0  0  0  0
    4.1004   -0.7862    0.0000 O   0  0  0  0  0  0  0  0  0  0  0  0
    4.2655   -2.0366    0.0000 C   0  0  2  0  0  0  0  0  0  0  0  0
    4.8257   -1.4309    0.0000 C   0  0  0  0  0  0  0  0  0  0  0  0
    5.0820   -2.1541    0.0000 O   0  0  0  0  0  0  0  0  0  0  0  0
    5.5921   -1.5057    0.0000 C   0  0  0  0  0  0  0  0  0  0  0  0
    5.2856   -0.7398    0.0000 C   0  0  0  0  0  0  0  0  0  0  0  0
    6.4087   -1.6233    0.0000 O   0  0  0  0  0  0  0  0  0  0  0  0
    1.3122   -2.3920    0.0000 C   0  0  2  0  0  0  0  0  0  0  0  0
  2  1  1  1  0  0  0
  2  3  1  0  0  0  0
  3  4  2  0  0  0  0
  3  5  1  0  0  0  0
  6  5  1  0  0  0  0
  6  7  1  6  0  0  0
  7  8  1  0  0  0  0
  8  9  1  0  0  0  0
  9 10  1  0  0  0  0
 10 11  1  0  0  0  0
 11 12  2  0  0  0  0
 12 13  1  0  0  0  0
 13 14  1  0  0  0  0
 14 15  1  0  0  0  0
 15 16  2  0  0  0  0
 17 15  1  0  0  0  0
 17 18  1  1  0  0  0
 17 19  1  6  0  0  0
 20 17  1  0  0  0  0
 20  2  1  0  0  0  0
 20 21  1  6  0  0  0
 20 22  1  1  0  0  0
 22 23  1  0  0  0  0
 23 24  1  0  0  0  0
 23 25  2  0  0  0  0
 26 12  1  0  0  0  0
  6 26  1  0  0  0  0
 26  9  1  6  0  0  0
M  END
$$$$
